<?xml version="1.0" encoding="UTF-8"?>

<!-- generated on 2025-04-28 13:54:52 by Eclipse SUMO netconvert Version v1_22_0+1717-02fa9803246
<netconvertConfiguration xmlns:xsi="http://www.w3.org/2001/XMLSchema-instance" xsi:noNamespaceSchemaLocation="http://sumo.dlr.de/xsd/netconvertConfiguration.xsd">

    <input>
        <sumo-net-file value="data/acosta_buslanes.net.xml"/>
        <node-files value="data/input_nodes2.nod.xml"/>
        <edge-files value="data/input_edges2.edg.xml"/>
        <connection-files value="data/input_connections2.con.xml"/>
        <tllogic-files value="data/acosta_tls.add.xml"/>
    </input>

    <output>
        <output-file value="data/acosta_peds.net.xml"/>
    </output>

    <processing>
        <geometry.min-radius.fix.railways value="false"/>
        <geometry.max-grade.fix value="false"/>
        <offset.disable-normalization value="true"/>
        <lefthand value="0"/>
    </processing>

    <junctions>
        <no-turnarounds value="true"/>
        <junctions.corner-detail value="5"/>
        <junctions.limit-turn-speed value="5.50"/>
        <rectangular-lane-cut value="0"/>
        <check-lane-foes.all value="true"/>
    </junctions>

    <pedestrian>
        <sidewalks.guess value="true"/>
        <crossings.guess value="true"/>
        <walkingareas value="0"/>
    </pedestrian>

    <report>
        <verbose value="true"/>
    </report>

</netconvertConfiguration>
-->

<net version="1.20" junctionCornerDetail="5" walkingareas="true" limitTurnSpeed="5.50" checkLaneFoesAll="1" xmlns:xsi="http://www.w3.org/2001/XMLSchema-instance" xsi:noNamespaceSchemaLocation="http://sumo.dlr.de/xsd/net_file.xsd">

    <location netOffset="-683542.41,-4928877.56" convBoundary="0.00,0.00,1817.58,1350.19" origBoundary="-346.830000,0.000000,1817.580000,2148.550000" projParameter="+proj=utm +zone=32 +ellps=WGS84 +datum=WGS84 +units=m +no_defs"/>

    <edge id=":0_0" function="internal">
        <lane id=":0_0_0" index="0" disallow="pedestrian" speed="13.89" length="21.64" shape="1413.15,808.11 1419.61,808.29 1423.97,809.13 1428.28,810.48 1434.58,812.21"/>
        <lane id=":0_0_1" index="1" disallow="pedestrian" speed="13.89" length="21.64" shape="1413.03,811.32 1419.30,811.50 1423.54,812.31 1427.72,813.63 1433.84,815.32"/>
    </edge>
    <edge id=":0_2" function="internal">
        <lane id=":0_2_0" index="0" disallow="pedestrian" speed="13.89" length="21.48" shape="1413.03,811.32 1419.20,812.05 1423.11,814.12 1426.94,816.80 1432.88,819.34"/>
        <lane id=":0_2_1" index="1" disallow="pedestrian" speed="13.89" length="21.48" shape="1412.90,814.52 1418.89,815.25 1422.67,817.32 1426.38,819.97 1432.14,822.46"/>
    </edge>
    <edge id=":0_c0" function="crossing" crossingEdges="3">
        <lane id=":0_c0_0" index="0" allow="pedestrian" speed="2.78" length="6.40" width="4.00" shape="1433.00,810.19 1431.52,816.42" outlineShape="1434.97,810.55 1433.47,816.88 1433.00,818.88 1430.78,827.70 1431.74,824.65 1433.47,816.88 1429.58,815.96 1431.05,809.73 1431.07,809.63"/>
    </edge>
    <edge id=":0_c1" function="crossing" crossingEdges="122">
        <lane id=":0_c1_0" index="0" allow="pedestrian" speed="2.78" length="9.61" width="4.00" shape="1414.94,816.07 1415.11,806.47" outlineShape="1412.94,816.04 1413.11,806.43 1417.11,806.53 1416.93,816.40"/>
    </edge>
    <edge id=":0_c2" function="crossing" crossingEdges="1b">
        <lane id=":0_c2_0" index="0" allow="pedestrian" speed="2.78" length="6.40" width="4.00" shape="1431.40,817.25 1429.78,823.44" outlineShape="1433.34,817.76 1431.71,823.95 1427.67,823.60 1431.70,823.95 1427.84,822.93 1429.47,816.74 1433.76,815.85 1430.78,827.70 1431.74,824.65 1433.47,816.88 1433.33,816.92 1433.23,817.07 1433.17,817.28 1433.16,817.51 1433.21,817.70"/>
    </edge>
    <edge id=":0_w0" function="walkingarea">
        <lane id=":0_w0_0" index="0" allow="pedestrian" speed="2.78" length="5.55" width="4.00" shape="1433.34,817.76 1433.76,815.85 1430.78,827.70 1430.78,827.70 1431.74,824.65 1433.47,816.88 1433.33,816.92 1433.23,817.07 1433.17,817.28 1433.16,817.51 1433.21,817.70"/>
    </edge>
    <edge id=":0_w1" function="walkingarea">
        <lane id=":0_w1_0" index="0" allow="pedestrian" speed="2.78" length="14.25" width="4.00" shape="1434.95,810.65 1435.41,808.70 1431.08,807.58 1427.55,806.54 1424.42,805.66 1421.26,804.98 1417.67,804.58 1413.23,804.51 1413.28,806.51 1413.11,806.43 1417.84,806.55 1421.31,806.90 1424.14,807.53 1426.95,808.39 1430.34,809.44"/>
    </edge>
    <edge id=":0_w2" function="walkingarea">
        <lane id=":0_w2_0" index="0" allow="pedestrian" speed="2.78" length="13.02" width="4.00" shape="1412.94,816.04 1412.72,819.11 1412.59,822.31 1431.71,823.95 1427.62,822.42 1424.75,820.65 1422.47,818.91 1420.15,817.43 1417.18,816.43"/>
    </edge>
    <edge id=":1_0" function="internal">
        <lane id=":1_0_0" index="0" disallow="pedestrian" speed="13.89" length="22.18" shape="1506.29,831.31 1501.22,852.82"/>
        <lane id=":1_0_1" index="1" disallow="pedestrian" speed="13.89" length="22.18" shape="1503.19,830.50 1498.10,852.09"/>
        <lane id=":1_0_2" index="2" disallow="pedestrian" speed="13.89" length="22.18" shape="1500.09,829.70 1494.99,851.37"/>
    </edge>
    <edge id=":1_3" function="internal">
        <lane id=":1_3_0" index="0" disallow="pedestrian" speed="8.66" length="2.80" shape="1492.38,842.67 1494.87,843.95"/>
        <lane id=":1_3_1" index="1" disallow="pedestrian" speed="7.31" length="3.36" shape="1491.13,845.61 1494.14,847.09"/>
    </edge>
    <edge id=":1_5" function="internal">
        <lane id=":1_5_0" index="0" disallow="pedestrian" speed="8.66" length="11.79" shape="1494.87,843.95 1496.76,844.93 1499.69,847.37 1501.18,850.00 1501.22,852.82"/>
        <lane id=":1_5_1" index="0" disallow="pedestrian" speed="7.31" length="6.78" shape="1494.14,847.09 1494.46,847.25 1496.73,848.87 1497.95,850.49 1498.10,852.09"/>
    </edge>
    <edge id=":1_c0" function="crossing" crossingEdges="201c">
        <lane id=":1_c0_0" index="0" allow="pedestrian" speed="2.78" length="9.60" width="4.00" shape="1498.04,831.24 1507.33,833.65" outlineShape="1498.54,829.30 1507.84,831.71 1506.83,835.58 1497.48,833.16"/>
    </edge>
    <edge id=":1_w0" function="walkingarea">
        <lane id=":1_w0_0" index="0" allow="pedestrian" speed="2.78" length="14.78" width="4.00" shape="1502.78,853.18 1504.73,853.64 1509.77,832.21 1507.84,831.71 1506.83,835.58"/>
    </edge>
    <edge id=":1_w1" function="walkingarea">
        <lane id=":1_w1_0" index="0" allow="pedestrian" speed="2.78" length="10.16" width="4.00" shape="1498.54,829.30 1493.79,839.35 1493.01,841.20 1493.77,841.13 1494.60,840.29 1495.49,838.69 1496.45,836.32 1497.46,833.19"/>
    </edge>
    <edge id=":10_0" function="internal">
        <lane id=":10_0_0" index="0" disallow="pedestrian" speed="13.89" length="8.52" shape="612.15,933.14 610.72,931.08 609.10,930.09 607.49,929.10 606.08,927.03"/>
        <lane id=":10_0_1" index="1" disallow="pedestrian" speed="13.89" length="8.52" shape="612.15,933.14 609.04,925.80"/>
        <lane id=":10_0_2" index="2" disallow="pedestrian" speed="13.89" length="8.52" shape="612.15,933.14 611.64,930.70 612.05,928.86 612.47,927.02 611.99,924.57"/>
    </edge>
    <edge id=":10_w0" function="walkingarea">
        <lane id=":10_w0_0" index="0" allow="pedestrian" speed="2.78" length="8.65" width="2.00" shape="604.61,927.64 602.76,928.41 603.67,929.98 604.70,930.90 605.78,931.50 606.88,932.09 607.92,933.01 608.85,934.57 610.68,933.78 609.75,932.22 608.72,931.31 607.62,930.72 606.54,930.12 605.51,929.20"/>
    </edge>
    <edge id=":11_0" function="internal">
        <lane id=":11_0_0" index="0" disallow="pedestrian" speed="13.89" length="17.37" shape="300.50,164.13 302.65,168.80 304.46,171.83 306.28,174.87 308.48,179.51"/>
        <lane id=":11_0_1" index="1" disallow="pedestrian" speed="13.89" length="17.37" shape="300.50,164.13 302.19,168.99 302.98,172.45 303.79,175.90 305.52,180.75"/>
    </edge>
    <edge id=":11_w0" function="walkingarea">
        <lane id=":11_w0_0" index="0" allow="pedestrian" speed="2.78" length="17.30" width="2.00" shape="309.95,178.90 311.80,178.13 303.84,162.78 301.98,163.53 303.47,166.90 304.75,169.30 305.94,171.23 307.13,173.15 308.43,175.54"/>
    </edge>
    <edge id=":114-end_0" function="internal">
        <lane id=":114-end_0_0" index="0" allow="bus" speed="3.65" length="4.67" shape="781.36,1351.67 779.95,1351.39 779.27,1350.80 779.34,1349.91 780.14,1348.71"/>
    </edge>
    <edge id=":114-end_w0" function="walkingarea">
        <lane id=":114-end_w0_0" index="0" allow="pedestrian" speed="2.78" length="14.80" width="2.00" shape="779.52,1347.23 778.76,1345.39 785.19,1360.91 784.43,1359.06"/>
    </edge>
    <edge id=":12_0" function="internal">
        <lane id=":12_0_0" index="0" disallow="pedestrian" speed="10.45" length="13.32" shape="323.60,239.73 321.28,235.71 318.27,232.84 314.55,231.13 314.13,231.07"/>
    </edge>
    <edge id=":12_1" function="internal">
        <lane id=":12_1_0" index="0" disallow="pedestrian" speed="13.89" length="23.67" shape="323.60,239.73 321.08,232.92 319.77,227.84 318.60,223.07 316.50,217.19"/>
    </edge>
    <edge id=":12_2" function="internal">
        <lane id=":12_2_0" index="0" disallow="pedestrian" speed="7.80" length="5.10" shape="326.54,238.48 325.17,233.57"/>
    </edge>
    <edge id=":12_9" function="internal">
        <lane id=":12_9_0" index="0" disallow="pedestrian" speed="10.45" length="4.03" shape="314.13,231.07 310.13,230.57"/>
    </edge>
    <edge id=":12_10" function="internal">
        <lane id=":12_10_0" index="0" disallow="pedestrian" speed="7.80" length="13.89" shape="325.17,233.57 325.01,232.96 325.89,229.30 329.20,227.48 334.92,227.51"/>
    </edge>
    <edge id=":12_3" function="internal">
        <lane id=":12_3_0" index="0" disallow="pedestrian" speed="6.17" length="7.15" shape="334.48,230.68 331.07,230.66 329.10,231.74 328.75,233.19"/>
    </edge>
    <edge id=":12_4" function="internal">
        <lane id=":12_4_0" index="0" disallow="pedestrian" speed="13.89" length="24.39" shape="334.48,230.68 327.91,230.08 322.34,230.10 316.76,230.38 310.13,230.57"/>
    </edge>
    <edge id=":12_5" function="internal">
        <lane id=":12_5_0" index="0" disallow="pedestrian" speed="13.12" length="19.54" shape="334.48,230.68 328.47,229.16 323.47,226.41 319.48,222.42 318.49,220.69"/>
    </edge>
    <edge id=":12_11" function="internal">
        <lane id=":12_11_0" index="0" disallow="pedestrian" speed="6.17" length="4.18" shape="328.75,233.19 328.57,233.93 329.49,237.22"/>
    </edge>
    <edge id=":12_12" function="internal">
        <lane id=":12_12_0" index="0" disallow="pedestrian" speed="13.12" length="4.03" shape="318.49,220.69 316.50,217.19"/>
    </edge>
    <edge id=":12_6" function="internal">
        <lane id=":12_6_0" index="0" disallow="pedestrian" speed="11.60" length="14.21" shape="323.04,214.43 325.68,219.80 328.54,223.77 331.10,225.90"/>
    </edge>
    <edge id=":12_7" function="internal">
        <lane id=":12_7_0" index="0" disallow="pedestrian" speed="13.89" length="23.51" shape="320.09,215.67 329.49,237.22"/>
    </edge>
    <edge id=":12_8" function="internal">
        <lane id=":12_8_0" index="0" disallow="pedestrian" speed="8.88" length="8.27" shape="320.09,215.67 321.79,222.16 321.43,223.68"/>
    </edge>
    <edge id=":12_13" function="internal">
        <lane id=":12_13_0" index="0" disallow="pedestrian" speed="11.60" length="4.18" shape="331.10,225.90 331.62,226.34 334.92,227.51"/>
    </edge>
    <edge id=":12_14" function="internal">
        <lane id=":12_14_0" index="0" disallow="pedestrian" speed="8.88" length="14.75" shape="321.43,223.68 320.70,226.81 316.81,229.61 310.13,230.57"/>
    </edge>
    <edge id=":12_c0" function="crossing" crossingEdges="24 103">
        <lane id=":12_c0_0" index="0" allow="pedestrian" speed="2.78" length="9.60" width="4.00" shape="330.17,234.76 321.34,238.52" outlineShape="330.96,236.60 322.13,240.36 320.82,237.85 320.08,236.89 320.56,236.68 329.39,232.92 331.44,232.42 330.70,232.97 330.36,233.85 330.45,235.06"/>
    </edge>
    <edge id=":12_c1" function="crossing" crossingEdges="16 15">
        <lane id=":12_c1_0" index="0" allow="pedestrian" speed="2.78" length="6.40" width="4.00" shape="333.16,225.65 332.29,231.99" outlineShape="335.14,225.92 334.27,232.26 332.65,232.17 331.46,232.41 330.70,232.97 330.37,233.83 330.30,231.72 331.18,225.38 331.33,224.22 333.20,225.36"/>
    </edge>
    <edge id=":12_c2" function="crossing" crossingEdges="14 104">
        <lane id=":12_c2_0" index="0" allow="pedestrian" speed="2.78" length="10.29" width="4.00" shape="315.80,219.66 325.29,215.66" outlineShape="315.03,217.81 324.51,213.81 326.12,217.28 326.21,217.44 316.25,221.64 316.19,221.21"/>
    </edge>
    <edge id=":12_c3" function="crossing" crossingEdges="49">
        <lane id=":12_c3_0" index="0" allow="pedestrian" speed="2.78" length="3.20" width="4.00" shape="312.14,232.16 312.12,228.96" outlineShape="310.14,232.17 310.12,228.97 312.93,228.65 314.12,228.09 314.14,232.76 312.83,232.39"/>
    </edge>
    <edge id=":12_w0" function="walkingarea">
        <lane id=":12_w0_0" index="0" allow="pedestrian" speed="2.78" length="9.00" width="4.00" shape="310.14,232.17 310.15,234.17 320.29,241.15 322.13,240.36 320.82,237.85 319.24,235.79 317.37,234.20 315.24,233.06 312.83,232.39"/>
    </edge>
    <edge id=":12_w1" function="walkingarea">
        <lane id=":12_w1_0" index="0" allow="pedestrian" speed="2.78" length="3.36" width="4.00" shape="330.96,236.60 332.80,235.81 333.99,234.24 334.27,232.26 332.65,232.17 331.46,232.41 330.70,232.97 330.36,233.85 330.45,235.06"/>
    </edge>
    <edge id=":12_w2" function="walkingarea">
        <lane id=":12_w2_0" index="0" allow="pedestrian" speed="2.78" length="10.07" width="4.00" shape="335.14,225.92 335.41,223.94 326.36,213.03 324.51,213.80 326.12,217.28 327.79,220.18 329.53,222.49 331.33,224.22 333.20,225.36"/>
    </edge>
    <edge id=":12_w3" function="walkingarea">
        <lane id=":12_w3_0" index="0" allow="pedestrian" speed="2.78" length="7.73" width="4.00" shape="315.03,217.81 313.18,218.59 310.12,228.97 312.93,228.65 314.93,227.71 316.15,226.16 316.57,223.99 316.19,221.21"/>
    </edge>
    <edge id=":13_0" function="internal">
        <lane id=":13_0_0" index="0" disallow="pedestrian" speed="6.21" length="6.26" shape="438.65,244.94 435.58,244.97 433.65,246.00 433.29,246.94"/>
    </edge>
    <edge id=":13_1" function="internal">
        <lane id=":13_1_0" index="0" disallow="pedestrian" speed="13.89" length="16.36" shape="438.65,244.94 422.43,242.77"/>
    </edge>
    <edge id=":13_2" function="internal">
        <lane id=":13_2_0" index="0" disallow="pedestrian" speed="10.35" length="3.52" shape="438.65,244.94 435.30,243.86"/>
    </edge>
    <edge id=":13_4" function="internal">
        <lane id=":13_4_0" index="0" disallow="pedestrian" speed="6.21" length="4.25" shape="433.29,246.94 432.86,248.04 433.22,251.09"/>
    </edge>
    <edge id=":13_5" function="internal">
        <lane id=":13_5_0" index="0" disallow="pedestrian" speed="10.35" length="12.98" shape="435.30,243.86 432.44,241.57 430.07,238.06 428.20,233.34"/>
    </edge>
    <edge id=":13_3" function="internal">
        <lane id=":13_3_0" index="0" disallow="pedestrian" speed="13.89" length="16.34" shape="422.87,239.60 439.06,241.77"/>
    </edge>
    <edge id=":13_c0" function="crossing" crossingEdges="50">
        <lane id=":13_c0_0" index="0" allow="pedestrian" speed="2.78" length="3.20" width="4.00" shape="434.26,248.75 431.16,249.56" outlineShape="434.76,250.69 431.67,251.49 430.97,249.61 429.92,248.01 429.76,247.86 430.66,247.62 433.76,246.82 435.84,246.70 435.06,247.25 434.62,248.09 434.52,249.24"/>
    </edge>
    <edge id=":13_c1" function="crossing" crossingEdges="37 38">
        <lane id=":13_c1_0" index="0" allow="pedestrian" speed="2.78" length="6.40" width="4.00" shape="437.29,239.92 436.46,246.27" outlineShape="439.27,240.18 438.44,246.53 436.97,246.46 435.84,246.70 435.06,247.25 434.62,248.09 434.47,246.01 435.30,239.66 435.37,239.13 436.89,239.70"/>
    </edge>
    <edge id=":13_c2" function="crossing" crossingEdges="33">
        <lane id=":13_c2_0" index="0" allow="pedestrian" speed="2.78" length="3.20" width="4.00" shape="427.25,235.72 430.31,234.78" outlineShape="426.67,233.80 429.73,232.87 430.53,234.83 431.63,236.47 430.90,236.70 427.84,237.63 425.74,237.85 426.52,237.31 426.94,236.45 426.99,235.28"/>
    </edge>
    <edge id=":13_c3" function="crossing" crossingEdges="15 16">
        <lane id=":13_c3_0" index="0" allow="pedestrian" speed="2.78" length="6.40" width="4.00" shape="424.20,244.62 425.07,238.28" outlineShape="422.21,244.35 423.09,238.01 424.60,238.09 425.74,237.85 426.52,237.31 426.94,236.45 427.05,238.56 426.18,244.90 426.11,245.38 424.67,244.85"/>
    </edge>
    <edge id=":13_w0" function="walkingarea">
        <lane id=":13_w0_0" index="0" allow="pedestrian" speed="2.78" length="3.36" width="4.00" shape="434.76,250.69 436.70,250.19 438.18,248.51 438.44,246.53 436.97,246.46 435.84,246.70 435.06,247.25 434.62,248.09 434.52,249.24"/>
    </edge>
    <edge id=":13_w1" function="walkingarea">
        <lane id=":13_w1_0" index="0" allow="pedestrian" speed="2.78" length="7.00" width="4.00" shape="439.27,240.18 439.53,238.20 429.73,232.87 430.53,234.83 431.65,236.49 433.08,237.86 434.83,238.93 436.89,239.70"/>
    </edge>
    <edge id=":13_w2" function="walkingarea">
        <lane id=":13_w2_0" index="0" allow="pedestrian" speed="2.78" length="3.36" width="4.00" shape="426.67,233.80 424.76,234.39 423.36,236.03 423.09,238.01 424.60,238.09 425.74,237.85 426.52,237.31 426.94,236.45 426.99,235.28"/>
    </edge>
    <edge id=":13_w3" function="walkingarea">
        <lane id=":13_w3_0" index="0" allow="pedestrian" speed="2.78" length="6.93" width="4.00" shape="422.21,244.35 421.94,246.33 431.67,251.49 430.97,249.61 429.92,248.01 428.52,246.68 426.77,245.63 424.67,244.85"/>
    </edge>
    <edge id=":133-begin_0" function="internal">
        <lane id=":133-begin_0_0" index="0" disallow="pedestrian" speed="3.65" length="4.67" shape="1759.04,528.77 1760.40,529.24 1760.99,529.92 1760.80,530.79 1759.84,531.87"/>
    </edge>
    <edge id=":133-begin_w0" function="walkingarea">
        <lane id=":133-begin_w0_0" index="0" allow="pedestrian" speed="2.78" length="8.40" width="2.00" shape="1760.24,533.42 1760.74,535.35 1758.14,525.29 1758.64,527.22"/>
    </edge>
    <edge id=":135-begin_0" function="internal">
        <lane id=":135-begin_0_0" index="0" disallow="pedestrian" speed="3.65" length="4.67" shape="929.35,1098.12 929.09,1099.54 928.51,1100.22 927.61,1100.17 926.41,1099.38"/>
    </edge>
    <edge id=":135-begin_w0" function="walkingarea">
        <lane id=":135-begin_w0_0" index="0" allow="pedestrian" speed="2.78" length="8.40" width="2.00" shape="924.93,1100.00 923.09,1100.78 932.67,1096.72 930.83,1097.50"/>
    </edge>
    <edge id=":137-begin_0" function="internal">
        <lane id=":137-begin_0_0" index="0" disallow="pedestrian" speed="3.65" length="4.67" shape="457.42,1074.92 456.00,1074.64 455.33,1074.05 455.40,1073.16 456.20,1071.96"/>
    </edge>
    <edge id=":137-begin_w0" function="walkingarea">
        <lane id=":137-begin_w0_0" index="0" allow="pedestrian" speed="2.78" length="8.40" width="2.00" shape="455.59,1070.48 454.83,1068.63 458.79,1078.25 458.03,1076.40"/>
    </edge>
    <edge id=":15_0" function="internal">
        <lane id=":15_0_0" index="0" disallow="pedestrian" speed="7.19" length="6.92" shape="802.80,820.34 801.39,818.35 799.33,817.35 797.14,817.34"/>
        <lane id=":15_0_1" index="1" disallow="pedestrian" speed="7.89" length="9.28" shape="802.80,820.34 800.84,817.06 798.39,815.14 796.09,814.68"/>
    </edge>
    <edge id=":15_2" function="internal">
        <lane id=":15_2_0" index="0" disallow="pedestrian" speed="8.50" length="15.63" shape="805.89,819.41 804.67,814.45 805.84,810.64 809.39,807.99 811.43,807.48"/>
    </edge>
    <edge id=":15_7" function="internal">
        <lane id=":15_7_0" index="0" disallow="pedestrian" speed="7.19" length="4.05" shape="797.14,817.34 796.60,817.34 793.22,818.31"/>
        <lane id=":15_7_1" index="0" disallow="pedestrian" speed="7.89" length="4.14" shape="796.09,814.68 795.46,814.56 792.04,815.33"/>
    </edge>
    <edge id=":15_8" function="internal">
        <lane id=":15_8_0" index="0" disallow="pedestrian" speed="8.50" length="4.03" shape="811.43,807.48 815.34,806.50"/>
    </edge>
    <edge id=":15_3" function="internal">
        <lane id=":15_3_0" index="0" disallow="pedestrian" speed="8.57" length="12.45" shape="802.40,796.01 803.60,799.76 806.08,802.23 809.86,803.42 810.91,803.40"/>
    </edge>
    <edge id=":15_4" function="internal">
        <lane id=":15_4_0" index="0" disallow="pedestrian" speed="11.33" length="6.11" shape="802.40,796.01 802.43,802.12"/>
    </edge>
    <edge id=":15_9" function="internal">
        <lane id=":15_9_0" index="0" disallow="pedestrian" speed="8.57" length="4.02" shape="810.91,803.40 814.93,803.33"/>
    </edge>
    <edge id=":15_10" function="internal">
        <lane id=":15_10_0" index="0" disallow="pedestrian" speed="11.33" length="17.72" shape="802.43,802.12 802.44,802.66 800.72,808.10 797.26,812.32 792.04,815.33"/>
    </edge>
    <edge id=":15_5" function="internal">
        <lane id=":15_5_0" index="0" disallow="pedestrian" speed="13.89" length="26.36" shape="788.59,806.58 796.05,804.21 801.44,803.72 806.99,803.85 814.93,803.33"/>
        <lane id=":15_5_1" index="1" disallow="pedestrian" speed="13.89" length="26.36" shape="789.76,809.55 797.00,807.28 802.24,806.83 807.63,806.99 815.34,806.50"/>
    </edge>
    <edge id=":15_c0" function="crossing" crossingEdges="18">
        <lane id=":15_c0_0" index="0" allow="pedestrian" speed="2.78" length="6.41" width="4.00" shape="806.56,816.94 800.54,819.14" outlineShape="807.24,818.82 801.22,821.02 800.70,819.96 799.81,819.27 798.68,818.91 797.95,818.89 799.85,817.26 805.87,815.06 807.24,818.82 811.01,817.90 814.06,816.94 816.07,811.91 815.58,808.75 815.54,808.09 811.94,808.82 809.23,809.97 807.42,811.54 806.50,813.53 806.49,814.84"/>
    </edge>
    <edge id=":15_c1" function="crossing" crossingEdges="69">
        <lane id=":15_c1_0" index="0" allow="pedestrian" speed="2.78" length="6.40" width="4.00" shape="812.75,801.99 813.56,808.34" outlineShape="814.73,801.74 815.54,808.09 811.94,808.82 811.62,808.95 810.71,801.81 811.70,801.93"/>
    </edge>
    <edge id=":15_c2" function="crossing" crossingEdges="191">
        <lane id=":15_c2_0" index="0" allow="pedestrian" speed="2.78" length="3.20" width="4.00" shape="801.06,798.19 804.24,797.79" outlineShape="800.82,796.20 803.99,795.81 804.09,795.80 803.99,795.81 804.54,797.97 805.57,799.64 804.49,799.78 801.31,800.17 798.62,799.55 799.59,798.77 800.58,797.44"/>
    </edge>
    <edge id=":15_c3" function="crossing" crossingEdges="72[1]">
        <lane id=":15_c3_0" index="0" allow="pedestrian" speed="2.78" length="6.40" width="4.00" shape="792.21,810.29 789.84,804.34" outlineShape="790.36,811.03 787.99,805.09 787.97,804.99 788.01,805.08 791.67,803.52 794.07,809.55 790.36,811.03 794.07,809.55"/>
    </edge>
    <edge id=":15_c4" function="crossing" crossingEdges="17">
        <lane id=":15_c4_0" index="0" allow="pedestrian" speed="2.78" length="6.40" width="4.00" shape="795.67,819.06 793.32,813.11" outlineShape="793.80,819.80 791.46,813.84 790.36,811.03 794.07,809.55 795.18,812.37 797.75,818.89 797.30,818.88 795.68,819.17"/>
    </edge>
    <edge id=":15_w0" function="walkingarea">
        <lane id=":15_w0_0" index="0" allow="pedestrian" speed="2.78" length="4.47" width="4.00" shape="793.80,819.80 794.54,821.66 799.38,821.49 801.21,820.69 801.22,821.02 800.70,819.96 799.81,819.27 798.68,818.91 797.30,818.88 795.68,819.17"/>
    </edge>
    <edge id=":15_w1" function="walkingarea">
        <lane id=":15_w1_0" index="0" allow="pedestrian" speed="2.78" length="8.07" width="4.00" shape="807.24,818.82 811.01,817.90 814.06,816.94 816.07,811.91 815.58,808.75 815.54,808.09 811.94,808.82 809.23,809.97 807.42,811.54 806.50,813.53 806.48,815.94"/>
    </edge>
    <edge id=":15_w2" function="walkingarea">
        <lane id=":15_w2_0" index="0" allow="pedestrian" speed="2.78" length="7.58" width="4.00" shape="814.73,801.74 814.40,799.16 805.98,795.56 803.99,795.81 804.54,797.97 805.58,799.66 807.13,800.89 809.16,801.64 811.70,801.93"/>
    </edge>
    <edge id=":15_w3" function="walkingarea">
        <lane id=":15_w3_0" index="0" allow="pedestrian" speed="2.78" length="9.91" width="4.00" shape="800.82,796.20 787.26,803.23 788.01,805.08 792.03,803.36 795.31,801.73 797.83,800.20 799.59,798.77 800.58,797.44"/>
    </edge>
    <edge id=":15_w4" function="walkingarea">
        <lane id=":15_w4_0" index="0" allow="pedestrian" speed="2.78" length="3.03" width="4.00" shape="795.18,812.37 791.46,813.84 790.36,811.03 794.07,809.55"/>
    </edge>
    <edge id=":16_0" function="internal">
        <lane id=":16_0_0" index="0" disallow="pedestrian" speed="13.89" length="8.56" shape="665.65,854.74 663.23,855.56 661.84,856.94 660.44,858.28 658.01,859.01"/>
        <lane id=":16_0_1" index="1" disallow="pedestrian" speed="13.89" length="8.56" shape="665.30,851.55 662.92,852.37 661.55,853.75 660.18,855.09 657.79,855.82"/>
        <lane id=":16_0_2" index="2" disallow="pedestrian" speed="13.89" length="8.56" shape="665.30,851.55 657.57,852.63"/>
    </edge>
    <edge id=":16_w0" function="walkingarea">
        <lane id=":16_w0_0" index="0" allow="pedestrian" speed="2.78" length="8.84" width="2.00" shape="658.13,860.61 658.26,862.60 660.07,862.21 661.27,861.46 662.15,860.52 663.04,859.57 664.23,858.78 666.03,858.31 665.82,856.33 664.03,856.79 662.86,857.58 661.98,858.53 661.10,859.47 659.92,860.22"/>
    </edge>
    <edge id=":17_0" function="internal">
        <lane id=":17_0_0" index="0" disallow="pedestrian" speed="13.89" length="0.21" shape="816.50,851.30 816.30,851.38"/>
        <lane id=":17_0_1" index="1" disallow="pedestrian" speed="13.89" length="0.21" shape="819.43,850.02 819.24,850.10"/>
    </edge>
    <edge id=":17_c0" function="crossing" crossingEdges="181">
        <lane id=":17_c0_0" index="0" allow="pedestrian" speed="2.78" length="6.40" width="4.00" shape="820.08,847.54 814.23,850.13" outlineShape="820.89,849.37 815.04,851.96 814.94,851.99 815.04,851.94 813.42,848.30 813.45,848.40 813.42,848.30 819.27,845.71 820.95,849.34 823.88,848.06 823.93,848.23 820.88,849.19 819.27,845.71"/>
    </edge>
    <edge id=":17_w0" function="walkingarea">
        <lane id=":17_w0_0" index="0" allow="pedestrian" speed="2.78" length="1.58" width="4.00" shape="814.84,852.03 813.01,852.82 813.21,852.76 815.04,851.94 813.42,848.30"/>
    </edge>
    <edge id=":17_w1" function="walkingarea">
        <lane id=":17_w1_0" index="0" allow="pedestrian" speed="2.78" length="1.74" width="4.00" shape="819.27,845.71 820.95,849.35 823.88,848.06 823.93,848.23 820.88,849.19"/>
    </edge>
    <edge id=":18_0" function="internal">
        <lane id=":18_0_0" index="0" disallow="pedestrian" speed="10.13" length="14.32" shape="469.94,388.44 467.83,384.21 465.58,381.11 463.18,379.14 460.65,378.31"/>
    </edge>
    <edge id=":18_1" function="internal">
        <lane id=":18_1_0" index="0" disallow="pedestrian" speed="7.10" length="15.16" shape="469.94,388.44 467.97,382.82 467.56,378.90 468.72,376.70 471.45,376.19"/>
    </edge>
    <edge id=":18_2" function="internal">
        <lane id=":18_2_0" index="0" disallow="pedestrian" speed="13.89" length="10.54" shape="471.13,379.38 460.65,378.31"/>
    </edge>
    <edge id=":18_3" function="internal">
        <lane id=":18_3_0" index="0" disallow="pedestrian" speed="8.04" length="10.48" shape="464.02,369.85 465.04,372.40 466.62,374.31 468.76,375.57 471.45,376.19"/>
    </edge>
    <edge id=":18_4" function="internal">
        <lane id=":18_4_0" index="0" disallow="pedestrian" speed="6.41" length="11.12" shape="464.02,369.85 464.69,373.77 464.35,376.49 463.01,378.00 460.65,378.31"/>
    </edge>
    <edge id=":18_5" function="internal">
        <lane id=":18_5_0" index="0" disallow="pedestrian" speed="13.89" length="10.53" shape="460.98,375.12 471.45,376.19"/>
    </edge>
    <edge id=":18_c0" function="crossing" crossingEdges="51">
        <lane id=":18_c0_0" index="0" allow="pedestrian" speed="2.78" length="3.20" width="4.00" shape="470.63,385.97 467.68,387.23" outlineShape="471.50,387.77 468.47,389.07 467.21,386.39 466.69,385.48 470.06,384.04 470.56,385.65"/>
    </edge>
    <edge id=":18_c1" function="crossing" crossingEdges="219 220">
        <lane id=":18_c1_0" index="0" allow="pedestrian" speed="2.78" length="6.40" width="4.00" shape="469.62,374.40 468.98,380.77" outlineShape="471.61,374.60 470.97,380.97 470.27,381.09 469.87,381.62 469.79,382.55 466.99,380.57 467.63,374.20 467.74,373.11 468.79,373.81 470.10,374.32"/>
    </edge>
    <edge id=":18_c2" function="crossing" crossingEdges="50">
        <lane id=":18_c2_0" index="0" allow="pedestrian" speed="2.78" length="3.20" width="4.00" shape="462.97,372.18 466.07,371.38" outlineShape="462.47,370.25 465.57,369.44 466.07,370.89 466.78,372.09 467.65,373.04 466.57,373.32 463.47,374.12 461.49,373.52 461.81,373.51 462.29,373.27 462.60,372.83 462.73,372.18 462.69,371.32"/>
    </edge>
    <edge id=":18_c3" function="crossing" crossingEdges="19 20">
        <lane id=":18_c3_0" index="0" allow="pedestrian" speed="2.78" length="6.40" width="4.00" shape="462.47,380.11 463.14,373.74" outlineShape="460.48,379.90 461.15,373.53 461.81,373.51 462.29,373.27 462.60,372.83 462.73,372.18 465.13,373.95 464.46,380.31 464.28,382.09 463.27,381.12 461.89,380.28"/>
    </edge>
    <edge id=":18_w0" function="walkingarea">