<?xml version="1.0" encoding="UTF-8"?>

<!-- generated on 2024-11-27 12:50:11.732488 by randomTrips.py v1_21_0+0982-fff2aa94565
<configuration>
    <net-file value="osm.net.xml.gz"/>
    <output-trip-file value="osm.rail.trips.xml"/>
    <prefix value="rail"/>
    <trip-attributes value="departLane=&quot;best&quot;"/>
    <fringe-start-attributes value="departSpeed=&quot;max&quot;"/>
    <vehicle-class value="rail"/>
    <fringe-factor value="40"/>
    <vclass value="rail"/>
    <min-distance value="2400.0"/>
    <validate value="True"/>
    <period value="60.0"/>
</configuration>
-->

<!-- generated on 2024-11-27 12:50:11 by Eclipse SUMO duarouter Version v1_21_0+0981-da72f542b3e
<duarouterConfiguration xmlns:xsi="http://www.w3.org/2001/XMLSchema-instance" xsi:noNamespaceSchemaLocation="http://sumo.dlr.de/xsd/duarouterConfiguration.xsd">

    <input>
        <net-file value="osm.net.xml.gz"/>
        <route-files value="osm.rail.trips.xml"/>
    </input>

    <output>
        <output-file value="osm.rail.trips.xml.tmp"/>
        <alternatives-output value="NUL"/>
        <write-trips value="true"/>
    </output>

    <time>
        <begin value="0"/>
        <end value="3600.0"/>
    </time>

    <report>
        <no-warnings value="true"/>
        <ignore-errors value="true"/>
        <no-step-log value="true"/>
    </report>

</duarouterConfiguration>
-->

<routes xmlns:xsi="http://www.w3.org/2001/XMLSchema-instance" xsi:noNamespaceSchemaLocation="http://sumo.dlr.de/xsd/routes_file.xsd">
    <vType id="rail_rail" vClass="rail"/>
    <trip id="rail0" type="rail_rail" depart="0.00" departLane="best" departSpeed="max" from="-10750089#3" to="176974236"/>
    <trip id="rail1" type="rail_rail" depart="60.00" departLane="best" departSpeed="max" from="10750087#0" to="10750089#3"/>
    <trip id="rail4" type="rail_rail" depart="240.00" departLane="best" departSpeed="max" from="7873316" to="-10750089#1"/>
    <trip id="rail8" type="rail_rail" depart="480.00" departLane="best" departSpeed="max" from="-10750089#3" to="70564181"/>
    <trip id="rail13" type="rail_rail" depart="780.00" departLane="best" departSpeed="max" from="-10750089#3" to="70573839"/>
    <trip id="rail14" type="rail_rail" depart="840.00" departLane="best" departSpeed="max" from="7873317#0" to="10750089#3"/>
    <trip id="rail16" type="rail_rail" depart="960.00" departLane="best" departSpeed="max" from="-10750089#3" to="70564175#1"/>
    <trip id="rail17" type="rail_rail" depart="1020.00" departLane="best" departSpeed="max" from="-70564168#3" to="10750089#3"/>
    <trip id="rail26" type="rail_rail" depart="1560.00" departLane="best" departSpeed="max" from="-10750089#3" to="70564172"/>
    <trip id="rail29" type="rail_rail" depart="1740.00" departLane="best" departSpeed="max" from="-70564168#3" to="10750089#3"/>
    <trip id="rail31" type="rail_rail" depart="1860.00" departLane="best" departSpeed="max" from="-10750089#3" to="70564166#4"/>
    <trip id="rail33" type="rail_rail" depart="1980.00" departLane="best" departSpeed="max" from="10750087#0" to="10750089#3"/>
    <trip id="rail35" type="rail_rail" depart="2100.00" departLane="best" from="-581290598#0" to="10750089#3"/>
    <trip id="rail37" type="rail_rail" depart="2220.00" departLane="best" departSpeed="max" from="-10750089#3" to="70564181"/>
    <trip id="rail38" type="rail_rail" depart="2280.00" departLane="best" departSpeed="max" from="-10750089#3" to="176974236"/>
    <trip id="rail50" type="rail_rail" depart="3000.00" departLane="best" departSpeed="max" from="-10750089#3" to="70564175#1"/>
    <trip id="rail51" type="rail_rail" depart="3060.00" departLane="best" departSpeed="max" from="-10750089#3" to="581290598#3"/>
    <trip id="rail52" type="rail_rail" depart="3120.00" departLane="best" departSpeed="max" from="-10750089#3" to="70564168#3"/>
    <trip id="rail54" type="rail_rail" depart="3240.00" departLane="best" departSpeed="max" from="7873316" to="10750089#1"/>
    <trip id="rail59" type="rail_rail" depart="3540.00" departLane="best" departSpeed="max" from="62418269#0" to="515354704#3"/>
</routes>
