<?xml version="1.0" encoding="UTF-8"?>

<!-- generated on 2024-11-27 12:50:05.949560 by randomTrips.py v1_21_0+0982-fff2aa94565
<configuration>
    <net-file value="osm.net.xml.gz"/>
    <output-trip-file value="osm.passenger.trips.xml"/>
    <prefix value="veh"/>
    <trip-attributes value="departLane=&quot;best&quot;"/>
    <fringe-start-attributes value="departSpeed=&quot;max&quot;"/>
    <vehicle-class value="passenger"/>
    <lanes value="True"/>
    <fringe-factor value="5"/>
    <allow-fringe.min-length value="1000.0"/>
    <min-distance value="300.0"/>
    <validate value="True"/>
    <period value="1.2"/>
</configuration>
-->

<!-- generated on 2024-11-27 12:50:05 by Eclipse SUMO duarouter Version v1_21_0+0981-da72f542b3e
<duarouterConfiguration xmlns:xsi="http://www.w3.org/2001/XMLSchema-instance" xsi:noNamespaceSchemaLocation="http://sumo.dlr.de/xsd/duarouterConfiguration.xsd">

    <input>
        <net-file value="osm.net.xml.gz"/>
        <route-files value="osm.passenger.trips.xml"/>
    </input>

    <output>
        <output-file value="osm.passenger.trips.xml.tmp"/>
        <alternatives-output value="NUL"/>
        <write-trips value="true"/>
    </output>

    <time>
        <begin value="0"/>
        <end value="3600.0"/>
    </time>

    <report>
        <no-warnings value="true"/>
        <ignore-errors value="true"/>
        <no-step-log value="true"/>
    </report>

</duarouterConfiguration>
-->

<routes xmlns:xsi="http://www.w3.org/2001/XMLSchema-instance" xsi:noNamespaceSchemaLocation="http://sumo.dlr.de/xsd/routes_file.xsd">
    <vType id="veh_passenger" vClass="passenger"/>
    <trip id="veh0" type="veh_passenger" depart="0.00" departLane="best" from="263823741#2" to="-10571561#6"/>
    <trip id="veh1" type="veh_passenger" depart="1.20" departLane="best" from="33199416#2" to="307704875#12"/>
    <trip id="veh2" type="veh_passenger" depart="2.40" departLane="best" from="611101999#6" to="-22780112#0"/>
    <trip id="veh3" type="veh_passenger" depart="3.60" departLane="best" from="-70573827#0" to="-10749647#3"/>
    <trip id="veh4" type="veh_passenger" depart="4.80" departLane="best" from="-30915770#1" to="180678256#8"/>
    <trip id="veh5" type="veh_passenger" depart="6.00" departLane="best" departSpeed="max" from="-10426716#1" to="-33199416#8"/>
    <trip id="veh7" type="veh_passenger" depart="8.40" departLane="best" from="-30918490#2" to="24982516#1"/>
    <trip id="veh8" type="veh_passenger" depart="9.60" departLane="best" from="4829857#2" to="-10425628#0"/>
    <trip id="veh9" type="veh_passenger" depart="10.80" departLane="best" from="4764514#10" to="31000150#1"/>
    <trip id="veh11" type="veh_passenger" depart="13.20" departLane="best" from="70908501#0" to="-7016579#7"/>
    <trip id="veh12" type="veh_passenger" depart="14.40" departLane="best" from="-173759898#1" to="-24323958"/>
    <trip id="veh13" type="veh_passenger" depart="15.60" departLane="best" from="511308706#1" to="25498147#1"/>
    <trip id="veh15" type="veh_passenger" depart="18.00" departLane="best" from="165764259#1" to="7990940#3"/>
    <trip id="veh16" type="veh_passenger" depart="19.20" departLane="best" departSpeed="max" from="-7002897#7" to="23170152#3"/>
    <trip id="veh18" type="veh_passenger" depart="21.60" departLane="best" from="54981199#0" to="24787109#8"/>
    <trip id="veh19" type="veh_passenger" depart="22.80" departLane="best" from="307704875#3" to="-11014595#1"/>
    <trip id="veh20" type="veh_passenger" depart="24.00" departLane="best" departSpeed="max" from="-31017440#1" to="-573227380#7"/>
    <trip id="veh21" type="veh_passenger" depart="25.20" departLane="best" from="-151627458#1" to="-4747816#8"/>
    <trip id="veh22" type="veh_passenger" depart="26.40" departLane="best" departSpeed="max" from="-180678256#8" to="-5640228#0"/>
    <trip id="veh23" type="veh_passenger" depart="27.60" departLane="best" departSpeed="max" from="25613148#0" to="-71306685"/>
    <trip id="veh24" type="veh_passenger" depart="28.80" departLane="best" departSpeed="max" from="-671061509" to="-4726782#0"/>
    <trip id="veh25" type="veh_passenger" depart="30.00" departLane="best" departSpeed="max" from="-4743168#1" to="7016614#1"/>
    <trip id="veh26" type="veh_passenger" depart="31.20" departLane="best" from="-25378758#6" to="427480092"/>
    <trip id="veh27" type="veh_passenger" depart="32.40" departLane="best" from="-24982516#3" to="-7990945#0"/>
    <trip id="veh28" type="veh_passenger" depart="33.60" departLane="best" from="886406598" to="28672096#0"/>
    <trip id="veh29" type="veh_passenger" depart="34.80" departLane="best" from="188116371#0" to="30789152#1"/>
    <trip id="veh30" type="veh_passenger" depart="36.00" departLane="best" from="511308682" to="4764215#2"/>
    <trip id="veh31" type="veh_passenger" depart="37.20" departLane="best" departSpeed="max" from="-31017442" to="-10750085#5"/>
    <trip id="veh32" type="veh_passenger" depart="38.40" departLane="best" from="-511175442" to="-508036761"/>
    <trip id="veh33" type="veh_passenger" depart="39.60" departLane="best" from="-307704874#1" to="7016643#6"/>
    <trip id="veh34" type="veh_passenger" depart="40.80" departLane="best" from="573269348#1" to="-614969458#0"/>
    <trip id="veh37" type="veh_passenger" depart="44.40" departLane="best" from="-4743165#1" to="-4764217#1"/>
    <trip id="veh38" type="veh_passenger" depart="45.60" departLane="best" from="194243969" to="-4829962#2"/>
    <trip id="veh39" type="veh_passenger" depart="46.80" departLane="best" from="22988931#14" to="671061512#2"/>
    <trip id="veh40" type="veh_passenger" depart="48.00" departLane="best" from="-7016592#0" to="-4743067"/>
    <trip id="veh41" type="veh_passenger" depart="49.20" departLane="best" departSpeed="max" from="957651223" to="191883897#0"/>
    <trip id="veh42" type="veh_passenger" depart="50.40" departLane="best" from="-172469211#2" to="-11014602#1"/>
    <trip id="veh43" type="veh_passenger" depart="51.60" departLane="best" departSpeed="max" from="-22780106#1" to="278491962#14"/>
    <trip id="veh44" type="veh_passenger" depart="52.80" departLane="best" from="4764215#7" to="10571561#14"/>
    <trip id="veh45" type="veh_passenger" depart="54.00" departLane="best" from="-10903664#1" to="-7990947#0"/>
    <trip id="veh46" type="veh_passenger" depart="55.20" departLane="best" from="7990943#2" to="573269348#5"/>
    <trip id="veh47" type="veh_passenger" depart="56.40" departLane="best" from="-10425593#1" to="332880769"/>
    <trip id="veh49" type="veh_passenger" depart="58.80" departLane="best" departSpeed="max" from="-4743168#1" to="28672098#0"/>
    <trip id="veh50" type="veh_passenger" depart="60.00" departLane="best" from="-22780112#0" to="108915817#1"/>
    <trip id="veh51" type="veh_passenger" depart="61.20" departLane="best" from="-8166091#0" to="70794216#3"/>
    <trip id="veh52" type="veh_passenger" depart="62.40" departLane="best" from="573227380#8" to="-4829962#3"/>
    <trip id="veh53" type="veh_passenger" depart="63.60" departLane="best" departSpeed="max" from="10903000" to="-30789152#9"/>
    <trip id="veh54" type="veh_passenger" depart="64.80" departLane="best" from="7002907#1" to="611101972"/>
    <trip id="veh55" type="veh_passenger" depart="66.00" departLane="best" from="-4764512#19" to="28331540"/>
    <trip id="veh56" type="veh_passenger" depart="67.20" departLane="best" from="24787109#4" to="-289693600"/>
    <trip id="veh57" type="veh_passenger" depart="68.40" departLane="best" from="4743059#1" to="22988931#10"/>
    <trip id="veh59" type="veh_passenger" depart="70.80" departLane="best" from="-10063131#3" to="-7002899#3"/>
    <trip id="veh60" type="veh_passenger" depart="72.00" departLane="best" departSpeed="max" from="-10426709" to="7016605#1"/>
    <trip id="veh61" type="veh_passenger" depart="73.20" departLane="best" from="573269348#5" to="511308710#5"/>
    <trip id="veh62" type="veh_passenger" depart="74.40" departLane="best" from="-4829857#2" to="-146902430#2"/>
    <trip id="veh63" type="veh_passenger" depart="75.60" departLane="best" from="573269348#4" to="70564177#3"/>
    <trip id="veh64" type="veh_passenger" depart="76.80" departLane="best" from="-113049480#1" to="4747574#2"/>
    <trip id="veh65" type="veh_passenger" depart="78.00" departLane="best" from="4743167#2" to="-25486350#3"/>
    <trip id="veh66" type="veh_passenger" depart="79.20" departLane="best" from="10426277#0" to="23031879#1"/>
    <trip id="veh67" type="veh_passenger" depart="80.40" departLane="best" from="-4743165#1" to="611101996#3"/>
    <trip id="veh68" type="veh_passenger" depart="81.60" departLane="best" from="-70794216#2" to="-4726782#3"/>
    <trip id="veh70" type="veh_passenger" depart="84.00" departLane="best" from="-30253922#3" to="-611113396#4"/>
    <trip id="veh71" type="veh_passenger" depart="85.20" departLane="best" from="951227873#0" to="29435111"/>
    <trip id="veh72" type="veh_passenger" depart="86.40" departLane="best" from="-7990933#6" to="222114077#0"/>
    <trip id="veh74" type="veh_passenger" depart="88.80" departLane="best" from="-573269348#9" to="24982515#2"/>
    <trip id="veh75" type="veh_passenger" depart="90.00" departLane="best" from="-31639358#0" to="-4743166"/>
    <trip id="veh76" type="veh_passenger" depart="91.20" departLane="best" from="-13884035#0" to="278491962#26"/>
    <trip id="veh77" type="veh_passenger" depart="92.40" departLane="best" departSpeed="max" from="-31017442" to="7002899#4"/>
    <trip id="veh78" type="veh_passenger" depart="93.60" departLane="best" from="539160875" to="-172469887#0"/>
    <trip id="veh79" type="veh_passenger" depart="94.80" departLane="best" from="-328670992#1" to="307698862#4"/>
    <trip id="veh80" type="veh_passenger" depart="96.00" departLane="best" from="-30789152#1" to="-25613148#0"/>
    <trip id="veh81" type="veh_passenger" depart="97.20" departLane="best" from="7016608#10" to="24710789#3"/>
    <trip id="veh82" type="veh_passenger" depart="98.40" departLane="best" from="10425777#0" to="4764512#14"/>
    <trip id="veh83" type="veh_passenger" depart="99.60" departLane="best" from="4764514#5" to="-31639358#4"/>
    <trip id="veh84" type="veh_passenger" depart="100.80" departLane="best" from="-180678256#1" to="10750085#3"/>
    <trip id="veh85" type="veh_passenger" depart="102.00" departLane="best" from="-70794216#3" to="133846003"/>
    <trip id="veh86" type="veh_passenger" depart="103.20" departLane="best" from="31639358#4" to="307704874#3"/>
    <trip id="veh87" type="veh_passenger" depart="104.40" departLane="best" from="824892350" to="-24323963#0"/>
    <trip id="veh88" type="veh_passenger" depart="105.60" departLane="best" from="54981199#0" to="-4764512#11"/>
    <trip id="veh89" type="veh_passenger" depart="106.80" departLane="best" departSpeed="max" from="-28266065" to="10903464#3"/>
    <trip id="veh90" type="veh_passenger" depart="108.00" departLane="best" from="-70573827#0" to="-5640228#2"/>
    <trip id="veh91" type="veh_passenger" depart="109.20" departLane="best" from="-4304460#0" to="7016588#6"/>
    <trip id="veh92" type="veh_passenger" depart="110.40" departLane="best" from="-7990943#2" to="573269348#7"/>
    <trip id="veh93" type="veh_passenger" depart="111.60" departLane="best" from="177755890#1" to="-113049480#1"/>
    <trip id="veh94" type="veh_passenger" depart="112.80" departLane="best" departSpeed="max" from="957651223" to="511308724#0"/>
    <trip id="veh95" type="veh_passenger" depart="114.00" departLane="best" from="7990933#7" to="7016592#7"/>
    <trip id="veh96" type="veh_passenger" depart="115.20" departLane="best" from="511308710#2" to="-30253924#2"/>
    <trip id="veh97" type="veh_passenger" depart="116.40" departLane="best" from="10571561#19" to="-4729000#1"/>
    <trip id="veh98" type="veh_passenger" depart="117.60" departLane="best" from="-7016592#2" to="-146902430#3"/>
    <trip id="veh99" type="veh_passenger" depart="118.80" departLane="best" departSpeed="max" from="-7002897#7" to="8166091#1"/>
    <trip id="veh100" type="veh_passenger" depart="120.00" departLane="best" from="-4743165#1" to="4764512#12"/>
    <trip id="veh101" type="veh_passenger" depart="121.20" departLane="best" from="-8166092#0" to="10571561#16"/>
    <trip id="veh102" type="veh_passenger" depart="122.40" departLane="best" from="18361876" to="33199416#6"/>
    <trip id="veh103" type="veh_passenger" depart="123.60" departLane="best" from="-24982512#3" to="-5989176#0"/>
    <trip id="veh104" type="veh_passenger" depart="124.80" departLane="best" from="7990933#6" to="24787905#1"/>
    <trip id="veh105" type="veh_passenger" depart="126.00" departLane="best" departSpeed="max" from="172469211#0" to="4743167#2"/>
    <trip id="veh106" type="veh_passenger" depart="127.20" departLane="best" departSpeed="max" from="-10903616" to="24982514#0"/>
    <trip id="veh107" type="veh_passenger" depart="128.40" departLane="best" from="10903459#2" to="5640245#3"/>
    <trip id="veh108" type="veh_passenger" depart="129.60" departLane="best" departSpeed="max" from="-15402337" to="-31000152#1"/>
    <trip id="veh109" type="veh_passenger" depart="130.80" departLane="best" from="23170152#4" to="307704875#10"/>
    <trip id="veh110" type="veh_passenger" depart="132.00" departLane="best" departSpeed="max" from="-32548235" to="-24982516#5"/>
    <trip id="veh111" type="veh_passenger" depart="133.20" departLane="best" from="611101999#10" to="-4764217#0"/>
    <trip id="veh112" type="veh_passenger" depart="134.40" departLane="best" from="23170152#2" to="270431064"/>
    <trip id="veh113" type="veh_passenger" depart="135.60" departLane="best" from="-70564177#0" to="24982513#2"/>
    <trip id="veh115" type="veh_passenger" depart="138.00" departLane="best" from="-30664150#1" to="32961026#1"/>
    <trip id="veh116" type="veh_passenger" depart="139.20" departLane="best" from="-32961026#0" to="10063131#5"/>
    <trip id="veh117" type="veh_passenger" depart="140.40" departLane="best" from="286763701#0" to="-611094394#0"/>
    <trip id="veh118" type="veh_passenger" depart="141.60" departLane="best" from="-511175443#0" to="4743291#3"/>
    <trip id="veh119" type="veh_passenger" depart="142.80" departLane="best" from="-13884035#3" to="10903664#2"/>
    <trip id="veh120" type="veh_passenger" depart="144.00" departLane="best" departSpeed="max" from="957651223" to="899983663#1"/>
    <trip id="veh122" type="veh_passenger" depart="146.40" departLane="best" from="-4743165#1" to="7016608#2"/>
    <trip id="veh123" type="veh_passenger" depart="147.60" departLane="best" departSpeed="max" from="574296518" to="611113393#3"/>
    <trip id="veh124" type="veh_passenger" depart="148.80" departLane="best" departSpeed="max" from="-671061509" to="-29202579"/>
    <trip id="veh125" type="veh_passenger" depart="150.00" departLane="best" from="511175450#1" to="31017442"/>
    <trip id="veh126" type="veh_passenger" depart="151.20" departLane="best" departSpeed="max" from="277522071" to="-10425628#0"/>
    <trip id="veh127" type="veh_passenger" depart="152.40" departLane="best" from="508036760" to="-610163863#0"/>
    <trip id="veh128" type="veh_passenger" depart="153.60" departLane="best" from="278491962#5" to="7016618#1"/>
    <trip id="veh129" type="veh_passenger" depart="154.80" departLane="best" from="-24323971#0" to="-24982514#1"/>
    <trip id="veh130" type="veh_passenger" depart="156.00" departLane="best" departSpeed="max" from="-22780101#2" to="23170152#6"/>
    <trip id="veh131" type="veh_passenger" depart="157.20" departLane="best" from="-4747574#2" to="25613148#1"/>
    <trip id="veh133" type="veh_passenger" depart="159.60" departLane="best" from="25498147#0" to="-506455706"/>
    <trip id="veh134" type="veh_passenger" depart="160.80" departLane="best" from="10571561#7" to="7002899#4"/>
    <trip id="veh135" type="veh_passenger" depart="162.00" departLane="best" from="511308706#0" to="-23050530"/>
    <trip id="veh136" type="veh_passenger" depart="163.20" departLane="best" from="-70794216#3" to="-511308631"/>
    <trip id="veh137" type="veh_passenger" depart="164.40" departLane="best" departSpeed="max" from="-10425553" to="4752455"/>
    <trip id="veh138" type="veh_passenger" depart="165.60" departLane="best" departSpeed="max" from="25613148#0" to="-4829962#0"/>
    <trip id="veh139" type="veh_passenger" depart="166.80" departLane="best" departSpeed="max" from="332516251" to="23170152#2"/>
    <trip id="veh140" type="veh_passenger" depart="168.00" departLane="best" departSpeed="max" from="-71306688" to="-10425777#0"/>
    <trip id="veh141" type="veh_passenger" depart="169.20" departLane="best" from="657618384" to="22988931#7"/>
    <trip id="veh142" type="veh_passenger" depart="170.40" departLane="best" from="511175453" to="24982512#5"/>
    <trip id="veh143" type="veh_passenger" depart="171.60" departLane="best" from="-24787109#15" to="-25486350#1"/>
    <trip id="veh144" type="veh_passenger" depart="172.80" departLane="best" from="-4829930#0" to="7002890#2"/>
    <trip id="veh145" type="veh_passenger" depart="174.00" departLane="best" from="4764344" to="573269348#5"/>
    <trip id="veh146" type="veh_passenger" depart="175.20" departLane="best" from="611113418#1" to="-4726782#0"/>
    <trip id="veh147" type="veh_passenger" depart="176.40" departLane="best" from="-4304460#0" to="-24323978#6"/>
    <trip id="veh148" type="veh_passenger" depart="177.60" departLane="best" from="4747813#2" to="611113397#0"/>
    <trip id="veh149" type="veh_passenger" depart="178.80" departLane="best" from="-7016608#1" to="270431064"/>
    <trip id="veh150" type="veh_passenger" depart="180.00" departLane="best" from="-24982512#2" to="7016605#3"/>
    <trip id="veh151" type="veh_passenger" depart="181.20" departLane="best" from="5640228#5" to="7990943#6"/>
    <trip id="veh152" type="veh_passenger" depart="182.40" departLane="best" from="4829930#1" to="611113395#1"/>
    <trip id="veh153" type="veh_passenger" depart="183.60" departLane="best" from="-10426716#0" to="4726410#5"/>
    <trip id="veh154" type="veh_passenger" depart="184.80" departLane="best" from="-573227380#4" to="7016605#5"/>
    <trip id="veh155" type="veh_passenger" depart="186.00" departLane="best" from="4764512#3" to="60911934#1"/>
    <trip id="veh156" type="veh_passenger" depart="187.20" departLane="best" from="4829930#1" to="-508036760"/>
    <trip id="veh157" type="veh_passenger" depart="188.40" departLane="best" from="4764159#2" to="-24787109#8"/>
    <trip id="veh158" type="veh_passenger" depart="189.60" departLane="best" from="-30918491#1" to="511175453"/>
    <trip id="veh159" type="veh_passenger" depart="190.80" departLane="best" from="-942708516" to="-611101999#2"/>
    <trip id="veh160" type="veh_passenger" depart="192.00" departLane="best" from="4764217#0" to="-4747575#3"/>
    <trip id="veh162" type="veh_passenger" depart="194.40" departLane="best" from="-5640232#2" to="60911934#2"/>
    <trip id="veh163" type="veh_passenger" depart="195.60" departLane="best" from="7990933#2" to="-5640228#3"/>
    <trip id="veh164" type="veh_passenger" depart="196.80" departLane="best" from="270428389" to="10425554#4"/>
    <trip id="veh165" type="veh_passenger" depart="198.00" departLane="best" from="8166092#2" to="22780603"/>
    <trip id="veh166" type="veh_passenger" depart="199.20" departLane="best" from="7016614#0" to="-24982514#1"/>
    <trip id="veh167" type="veh_passenger" depart="200.40" departLane="best" from="7990943#10" to="-30789152#9"/>
    <trip id="veh168" type="veh_passenger" depart="201.60" departLane="best" from="722504209#3" to="-506455706"/>
    <trip id="veh169" type="veh_passenger" depart="202.80" departLane="best" departSpeed="max" from="-22780101#2" to="108915817#1"/>
    <trip id="veh170" type="veh_passenger" depart="204.00" departLane="best" from="31639358#2" to="-611113418#1"/>
    <trip id="veh171" type="veh_passenger" depart="205.20" departLane="best" from="24787106" to="191883899"/>
    <trip id="veh173" type="veh_passenger" depart="207.60" departLane="best" from="-4726410#2" to="32199683"/>
    <trip id="veh174" type="veh_passenger" depart="208.80" departLane="best" departSpeed="max" from="-10063131#5" to="7016592#3"/>
    <trip id="veh176" type="veh_passenger" depart="211.20" departLane="best" departSpeed="max" from="332516251" to="307698862#9"/>
    <trip id="veh177" type="veh_passenger" depart="212.40" departLane="best" from="-611113418#0" to="-172469211#1"/>
    <trip id="veh178" type="veh_passenger" depart="213.60" departLane="best" from="278491962#7" to="-7016566#4"/>
    <trip id="veh179" type="veh_passenger" depart="214.80" departLane="best" from="-508036765#0" to="5640229#3"/>
    <trip id="veh180" type="veh_passenger" depart="216.00" departLane="best" from="30918491#0" to="-611094394#0"/>
    <trip id="veh181" type="veh_passenger" depart="217.20" departLane="best" from="-4829962#1" to="10426276#1"/>
    <trip id="veh182" type="veh_passenger" depart="218.40" departLane="best" from="-7016592#7" to="-574296518"/>
    <trip id="veh183" type="veh_passenger" depart="219.60" departLane="best" from="-23187672" to="10571561#10"/>
    <trip id="veh184" type="veh_passenger" depart="220.80" departLane="best" from="7016614#4" to="307704875#13"/>
    <trip id="veh185" type="veh_passenger" depart="222.00" departLane="best" from="625075006#0" to="270431048"/>
    <trip id="veh186" type="veh_passenger" depart="223.20" departLane="best" from="-4764512#5" to="23031878#2"/>
    <trip id="veh187" type="veh_passenger" depart="224.40" departLane="best" from="-10063131#3" to="-573227380#1"/>
    <trip id="veh188" type="veh_passenger" depart="225.60" departLane="best" from="-722504209#0" to="24823334"/>
    <trip id="veh189" type="veh_passenger" depart="226.80" departLane="best" from="277526606" to="120991989#0"/>
    <trip id="veh190" type="veh_passenger" depart="228.00" departLane="best" from="-7990943#0" to="-4729000#1"/>
    <trip id="veh191" type="veh_passenger" depart="229.20" departLane="best" from="10425777#2" to="7002897#4"/>
    <trip id="veh192" type="veh_passenger" depart="230.40" departLane="best" from="4764217#1" to="-307698862#14"/>
    <trip id="veh194" type="veh_passenger" depart="232.80" departLane="best" from="25486350#6" to="-7016579#4"/>
    <trip id="veh195" type="veh_passenger" depart="234.00" departLane="best" from="508036763" to="4743291#1"/>
    <trip id="veh196" type="veh_passenger" depart="235.20" departLane="best" departSpeed="max" from="289693600" to="-4747573"/>
    <trip id="veh197" type="veh_passenger" depart="236.40" departLane="best" from="-30253920#1" to="-10571561#4"/>
    <trip id="veh198" type="veh_passenger" depart="237.60" departLane="best" from="-33519202#1" to="146902424#6"/>
    <trip id="veh199" type="veh_passenger" depart="238.80" departLane="best" from="511308710#5" to="-172469887#1"/>
    <trip id="veh200" type="veh_passenger" depart="240.00" departLane="best" from="-7016643#2" to="278491962#21"/>
    <trip id="veh202" type="veh_passenger" depart="242.40" departLane="best" from="10750085#5" to="-4764216#2"/>
    <trip id="veh203" type="veh_passenger" depart="243.60" departLane="best" from="277526610" to="-10425593#1"/>
    <trip id="veh204" type="veh_passenger" depart="244.80" departLane="best" from="4725704" to="4752214#2"/>
    <trip id="veh205" type="veh_passenger" depart="246.00" departLane="best" departSpeed="max" from="-22780101#2" to="10571561#20"/>
    <trip id="veh206" type="veh_passenger" depart="247.20" departLane="best" from="-25498147#1" to="71306688"/>
    <trip id="veh207" type="veh_passenger" depart="248.40" departLane="best" from="134605344" to="-113049480#0"/>
    <trip id="veh208" type="veh_passenger" depart="249.60" departLane="best" departSpeed="max" from="-427480092" to="5640229#3"/>
    <trip id="veh209" type="veh_passenger" depart="250.80" departLane="best" from="-82457818#0" to="508036765#0"/>
    <trip id="veh210" type="veh_passenger" depart="252.00" departLane="best" from="28331539#1" to="82457818#1"/>
    <trip id="veh211" type="veh_passenger" depart="253.20" departLane="best" from="23170152#5" to="70573829#1"/>
    <trip id="veh212" type="veh_passenger" depart="254.40" departLane="best" from="611101999#4" to="270428393"/>
    <trip id="veh213" type="veh_passenger" depart="255.60" departLane="best" from="30918490#5" to="180678256#8"/>
    <trip id="veh214" type="veh_passenger" depart="256.80" departLane="best" from="511175449#1" to="23031878#2"/>
    <trip id="veh215" type="veh_passenger" depart="258.00" departLane="best" from="611113397#0" to="4743048#3"/>
    <trip id="veh216" type="veh_passenger" depart="259.20" departLane="best" from="10426276#3" to="-4764514#7"/>
    <trip id="veh217" type="veh_passenger" depart="260.40" departLane="best" from="-41376838#0" to="28266065"/>
    <trip id="veh218" type="veh_passenger" depart="261.60" departLane="best" from="4743167#2" to="22780101#2"/>
    <trip id="veh219" type="veh_passenger" depart="262.80" departLane="best" from="25228289" to="-511175448#1"/>
    <trip id="veh220" type="veh_passenger" depart="264.00" departLane="best" from="-146902430#4" to="-5640245#4"/>
    <trip id="veh221" type="veh_passenger" depart="265.20" departLane="best" from="-4747573" to="-7002890#1"/>
    <trip id="veh222" type="veh_passenger" depart="266.40" departLane="best" from="166445410#0" to="-263823741#2"/>
    <trip id="veh223" type="veh_passenger" depart="267.60" departLane="best" from="-31639358#3" to="30918490#5"/>
    <trip id="veh224" type="veh_passenger" depart="268.80" departLane="best" from="307704875#6" to="-165764258#2"/>
    <trip id="veh225" type="veh_passenger" depart="270.00" departLane="best" from="-7016608#12" to="22988931#2"/>
    <trip id="veh226" type="veh_passenger" depart="271.20" departLane="best" from="-7016643#5" to="-4726410#0"/>
    <trip id="veh227" type="veh_passenger" depart="272.40" departLane="best" from="-70564177#3" to="7002899#3"/>
    <trip id="veh228" type="veh_passenger" depart="273.60" departLane="best" from="22988931#13" to="30918491#2"/>
    <trip id="veh229" type="veh_passenger" depart="274.80" departLane="best" from="511308724#5" to="4747577#3"/>
    <trip id="veh230" type="veh_passenger" depart="276.00" departLane="best" from="-7002899#1" to="-10425593#1"/>
    <trip id="veh231" type="veh_passenger" depart="277.20" departLane="best" from="511308719#4" to="70794216#2"/>
    <trip id="veh232" type="veh_passenger" depart="278.40" departLane="best" from="-70564167" to="4743167#1"/>
    <trip id="veh233" type="veh_passenger" depart="279.60" departLane="best" departSpeed="max" from="172469887#0" to="25498146"/>
    <trip id="veh234" type="veh_passenger" depart="280.80" departLane="best" from="-30918490#3" to="-4743165#0"/>
    <trip id="veh235" type="veh_passenger" depart="282.00" departLane="best" from="-7990933#0" to="-10749647#1"/>
    <trip id="veh236" type="veh_passenger" depart="283.20" departLane="best" from="-573269348#4" to="307704875#3"/>
    <trip id="veh237" type="veh_passenger" depart="284.40" departLane="best" from="-7016605#2" to="-30253922#8"/>
    <trip id="veh238" type="veh_passenger" depart="285.60" departLane="best" from="10425592#2" to="-25486350#1"/>
    <trip id="veh239" type="veh_passenger" depart="286.80" departLane="best" from="24982516#5" to="-10743323"/>
    <trip id="veh240" type="veh_passenger" depart="288.00" departLane="best" from="-7016579#9" to="24323977"/>
    <trip id="veh241" type="veh_passenger" depart="289.20" departLane="best" from="-10571561#10" to="286763701#0"/>
    <trip id="veh242" type="veh_passenger" depart="290.40" departLane="best" departSpeed="max" from="-24323971#3" to="11014602#2"/>
    <trip id="veh243" type="veh_passenger" depart="291.60" departLane="best" from="-10903462" to="-7990943#9"/>
    <trip id="veh245" type="veh_passenger" depart="294.00" departLane="best" from="4743048#2" to="-7990943#9"/>
    <trip id="veh246" type="veh_passenger" depart="295.20" departLane="best" from="4726357#2" to="511308710#5"/>
    <trip id="veh247" type="veh_passenger" depart="296.40" departLane="best" from="-47007889" to="-196277234"/>
    <trip id="veh248" type="veh_passenger" depart="297.60" departLane="best" departSpeed="max" from="-10426709" to="22988931#10"/>
    <trip id="veh249" type="veh_passenger" depart="298.80" departLane="best" departSpeed="max" from="957651223" to="-7016608#4"/>
    <trip id="veh252" type="veh_passenger" depart="302.40" departLane="best" from="70564180" to="-332880797"/>
    <trip id="veh253" type="veh_passenger" depart="303.60" departLane="best" from="-10426710#1" to="-28672004"/>
    <trip id="veh254" type="veh_passenger" depart="304.80" departLane="best" from="-23170152#4" to="307698862#6"/>
    <trip id="veh255" type="veh_passenger" depart="306.00" departLane="best" departSpeed="max" from="196277219" to="-4743059#2"/>
    <trip id="veh256" type="veh_passenger" depart="307.20" departLane="best" from="307704875#0" to="4747816#1"/>
    <trip id="veh258" type="veh_passenger" depart="309.60" departLane="best" from="4304460#0" to="-24982513#2"/>
    <trip id="veh259" type="veh_passenger" depart="310.80" departLane="best" departSpeed="max" from="-22780101#2" to="-10571561#8"/>
    <trip id="veh260" type="veh_passenger" depart="312.00" departLane="best" from="-508036761" to="307704875#14"/>
    <trip id="veh261" type="veh_passenger" depart="313.20" departLane="best" from="70908501#2" to="10063131#5"/>
    <trip id="veh262" type="veh_passenger" depart="314.40" departLane="best" from="30918489#0" to="-177755890#1"/>
    <trip id="veh263" type="veh_passenger" depart="315.60" departLane="best" from="30253923" to="278491962#14"/>
    <trip id="veh264" type="veh_passenger" depart="316.80" departLane="best" from="-188116371#1" to="4764159#0"/>
    <trip id="veh265" type="veh_passenger" depart="318.00" departLane="best" from="511308714#0" to="25486350#2"/>
    <trip id="veh267" type="veh_passenger" depart="320.40" departLane="best" from="4747816#8" to="-7016608#0"/>