<?xml version="1.0" encoding="UTF-8"?>

<!-- generated on 2024-11-27 12:49:51.431654 by randomTrips.py v1_21_0+0982-fff2aa94565
<configuration>
    <net-file value="osm.net.xml.gz"/>
    <additional-files value="osm_stops.add.xml,osm_pt.rou.xml"/>
    <output-trip-file value="osm.pedestrian.trips.xml"/>
    <route-file value="osm.pedestrian.rou.xml"/>
    <persontrips value="True"/>
    <prefix value="ped"/>
    <trip-attributes value="modes=&quot;public&quot;"/>
    <vehicle-class value="pedestrian"/>
    <fringe-factor value="1"/>
    <period value="0.8"/>
</configuration>
-->

<routes xmlns:xsi="http://www.w3.org/2001/XMLSchema-instance" xsi:noNamespaceSchemaLocation="http://sumo.dlr.de/xsd/routes_file.xsd">
    <vType id="ped_pedestrian" vClass="pedestrian"/>
    <person id="ped0" depart="0.00" type="ped_pedestrian">
        <personTrip from="327664788#0" to="-118782278" modes="public"/>
    </person>
    <person id="ped1" depart="0.80" type="ped_pedestrian">
        <personTrip from="-537611455" to="-405563794#1" modes="public"/>
    </person>
    <person id="ped2" depart="1.60" type="ped_pedestrian">
        <personTrip from="43106175#0" to="36892279" modes="public"/>
    </person>
    <person id="ped3" depart="2.40" type="ped_pedestrian">
        <personTrip from="70573853#1" to="-22780135#0" modes="public"/>
    </person>
    <person id="ped4" depart="3.20" type="ped_pedestrian">
        <personTrip from="-922493988" to="-119038971" modes="public"/>
    </person>
    <person id="ped5" depart="4.00" type="ped_pedestrian">
        <personTrip from="-405563773#0" to="177075737#3" modes="public"/>
    </person>
    <person id="ped6" depart="4.80" type="ped_pedestrian">
        <personTrip from="-119011226" to="-36906408#3" modes="public"/>
    </person>
    <person id="ped7" depart="5.60" type="ped_pedestrian">
        <personTrip from="32960826#1" to="23186942#3" modes="public"/>
    </person>
    <person id="ped8" depart="6.40" type="ped_pedestrian">
        <personTrip from="-405563781#1" to="28220366#0" modes="public"/>
    </person>
    <person id="ped9" depart="7.20" type="ped_pedestrian">
        <personTrip from="543272793" to="-10426710#4" modes="public"/>
    </person>
    <person id="ped10" depart="8.00" type="ped_pedestrian">
        <personTrip from="543235786" to="388933678#1" modes="public"/>
    </person>
    <person id="ped11" depart="8.80" type="ped_pedestrian">
        <personTrip from="-71149362" to="-31020728#0" modes="public"/>
    </person>
    <person id="ped12" depart="9.60" type="ped_pedestrian">
        <personTrip from="807136738#0" to="-70908444#0" modes="public"/>
    </person>
    <person id="ped13" depart="10.40" type="ped_pedestrian">
        <personTrip from="-23186942#4" to="-23187851" modes="public"/>
    </person>
    <person id="ped14" depart="11.20" type="ped_pedestrian">
        <personTrip from="598484334#3" to="289682302" modes="public"/>
    </person>
    <person id="ped15" depart="12.00" type="ped_pedestrian">
        <personTrip from="543235791" to="427480092" modes="public"/>
    </person>
    <person id="ped16" depart="12.80" type="ped_pedestrian">
        <personTrip from="22780140" to="821820347#3" modes="public"/>
    </person>
    <person id="ped17" depart="13.60" type="ped_pedestrian">
        <personTrip from="-800328961#1" to="232820586#1" modes="public"/>
    </person>
    <person id="ped18" depart="14.40" type="ped_pedestrian">
        <personTrip from="573269362#1" to="307704876#1" modes="public"/>
    </person>
    <person id="ped19" depart="15.20" type="ped_pedestrian">
        <personTrip from="61425970#1" to="25378761#4" modes="public"/>
    </person>
    <person id="ped20" depart="16.00" type="ped_pedestrian">
        <personTrip from="394037102#0" to="-165484800#0" modes="public"/>
    </person>
    <person id="ped21" depart="16.80" type="ped_pedestrian">
        <personTrip from="-4304460#3" to="-573269348#2" modes="public"/>
    </person>
    <person id="ped22" depart="17.60" type="ped_pedestrian">
        <personTrip from="-222084468#11" to="-43106178#0" modes="public"/>
    </person>
    <person id="ped23" depart="18.40" type="ped_pedestrian">
        <personTrip from="-238793071" to="-537950699#2" modes="public"/>
    </person>
    <person id="ped24" depart="19.20" type="ped_pedestrian">
        <personTrip from="327664755#1" to="-782019793#0" modes="public"/>
    </person>
    <person id="ped25" depart="20.00" type="ped_pedestrian">
        <personTrip from="-795132923#0" to="-39749457" modes="public"/>
    </person>
    <person id="ped26" depart="20.80" type="ped_pedestrian">
        <personTrip from="-519581910" to="782900738" modes="public"/>
    </person>
    <person id="ped27" depart="21.60" type="ped_pedestrian">
        <personTrip from="32960740" to="302372765#0" modes="public"/>
    </person>
    <person id="ped28" depart="22.40" type="ped_pedestrian">
        <personTrip from="-32961689#6" to="415882500" modes="public"/>
    </person>
    <person id="ped29" depart="23.20" type="ped_pedestrian">
        <personTrip from="-327664755#0" to="-800990625" modes="public"/>
    </person>
    <person id="ped30" depart="24.00" type="ped_pedestrian">
        <personTrip from="856427797#0" to="327664791#1" modes="public"/>
    </person>
    <person id="ped31" depart="24.80" type="ped_pedestrian">
        <personTrip from="238793074#3" to="36893232#9" modes="public"/>
    </person>
    <person id="ped32" depart="25.60" type="ped_pedestrian">
        <personTrip from="598484317#1" to="511175448#0" modes="public"/>
    </person>
    <person id="ped33" depart="26.40" type="ped_pedestrian">
        <personTrip from="-43065199#1" to="-119136535#0" modes="public"/>
    </person>
    <person id="ped34" depart="27.20" type="ped_pedestrian">
        <personTrip from="-7002899#0" to="-519583443" modes="public"/>
    </person>
    <person id="ped35" depart="28.00" type="ped_pedestrian">
        <personTrip from="-405563747" to="798225040#0" modes="public"/>
    </person>
    <person id="ped36" depart="28.80" type="ped_pedestrian">
        <personTrip from="7016571#2" to="-7002897#0" modes="public"/>
    </person>
    <person id="ped37" depart="29.60" type="ped_pedestrian">
        <personTrip from="33199416#8" to="-817425216#1" modes="public"/>
    </person>
    <person id="ped38" depart="30.40" type="ped_pedestrian">
        <personTrip from="71306688" to="120991989#0" modes="public"/>
    </person>
    <person id="ped39" depart="31.20" type="ped_pedestrian">
        <personTrip from="-509331931" to="-4747574#2" modes="public"/>
    </person>
    <person id="ped40" depart="32.00" type="ped_pedestrian">
        <personTrip from="24323973#1" to="-486150360#1" modes="public"/>
    </person>
    <person id="ped41" depart="32.80" type="ped_pedestrian">
        <personTrip from="268956419" to="70908496#2" modes="public"/>
    </person>
    <person id="ped42" depart="33.60" type="ped_pedestrian">
        <personTrip from="-818694506#2" to="-405563776" modes="public"/>
    </person>
    <person id="ped43" depart="34.40" type="ped_pedestrian">
        <personTrip from="938823647#0" to="177075760#2" modes="public"/>
    </person>
    <person id="ped44" depart="35.20" type="ped_pedestrian">
        <personTrip from="-23170152#6" to="-165764258#2" modes="public"/>
    </person>
    <person id="ped45" depart="36.00" type="ped_pedestrian">
        <personTrip from="-24787109#3" to="31770738#2" modes="public"/>
    </person>
    <person id="ped46" depart="36.80" type="ped_pedestrian">
        <personTrip from="53026051" to="-922528291" modes="public"/>
    </person>
    <person id="ped47" depart="37.60" type="ped_pedestrian">
        <personTrip from="-177075746" to="-801041795" modes="public"/>
    </person>
    <person id="ped48" depart="38.40" type="ped_pedestrian">
        <personTrip from="922493987" to="222084468#21" modes="public"/>
    </person>
    <person id="ped49" depart="39.20" type="ped_pedestrian">
        <personTrip from="819769825" to="61425965#0" modes="public"/>
    </person>
    <person id="ped50" depart="40.00" type="ped_pedestrian">
        <personTrip from="-10749352" to="405563793#2" modes="public"/>
    </person>
    <person id="ped51" depart="40.80" type="ped_pedestrian">
        <personTrip from="36892907#3" to="22780600" modes="public"/>
    </person>
    <person id="ped52" depart="41.60" type="ped_pedestrian">
        <personTrip from="-519581884#0" to="327664804#1" modes="public"/>
    </person>
    <person id="ped53" depart="42.40" type="ped_pedestrian">
        <personTrip from="-24982512#1" to="10571561#15" modes="public"/>
    </person>
    <person id="ped54" depart="43.20" type="ped_pedestrian">
        <personTrip from="119038826#0" to="802748934#0" modes="public"/>
    </person>
    <person id="ped55" depart="44.00" type="ped_pedestrian">
        <personTrip from="7016566#7" to="-490712691" modes="public"/>
    </person>
    <person id="ped56" depart="44.80" type="ped_pedestrian">
        <personTrip from="172477782#3" to="-33519353" modes="public"/>
    </person>
    <person id="ped57" depart="45.60" type="ped_pedestrian">
        <personTrip from="71292878" to="68676958#1" modes="public"/>
    </person>
    <person id="ped58" depart="46.40" type="ped_pedestrian">
        <personTrip from="-611101995#0" to="327664777#1" modes="public"/>
    </person>
    <person id="ped59" depart="47.20" type="ped_pedestrian">
        <personTrip from="299911660" to="-30918491#1" modes="public"/>
    </person>
    <person id="ped60" depart="48.00" type="ped_pedestrian">
        <personTrip from="4764217#0" to="22988931#2" modes="public"/>
    </person>
    <person id="ped61" depart="48.80" type="ped_pedestrian">
        <personTrip from="511308646#1" to="222084468#29" modes="public"/>
    </person>
    <person id="ped62" depart="49.60" type="ped_pedestrian">
        <personTrip from="-10063131#3" to="-7016605#0" modes="public"/>
    </person>
    <person id="ped63" depart="50.40" type="ped_pedestrian">
        <personTrip from="-10903701#1" to="756541022#0" modes="public"/>
    </person>
    <person id="ped64" depart="51.20" type="ped_pedestrian">
        <personTrip from="7016588#0" to="573269375#0" modes="public"/>
    </person>
    <person id="ped65" depart="52.00" type="ped_pedestrian">
        <personTrip from="-620499402" to="-172477782#2" modes="public"/>
    </person>
    <person id="ped66" depart="52.80" type="ped_pedestrian">
        <personTrip from="7016579#8" to="7990943#8" modes="public"/>
    </person>
    <person id="ped67" depart="53.60" type="ped_pedestrian">
        <personTrip from="-22780101#2" to="165761981" modes="public"/>
    </person>
    <person id="ped68" depart="54.40" type="ped_pedestrian">
        <personTrip from="-180678256#2" to="4764215#4" modes="public"/>
    </person>
    <person id="ped69" depart="55.20" type="ped_pedestrian">
        <personTrip from="4764512#5" to="-278491962#0" modes="public"/>
    </person>
    <person id="ped70" depart="56.00" type="ped_pedestrian">
        <personTrip from="15402333#0" to="23186957#7" modes="public"/>
    </person>
    <person id="ped71" depart="56.80" type="ped_pedestrian">
        <personTrip from="-511175442" to="7002897#6" modes="public"/>
    </person>
    <person id="ped72" depart="57.60" type="ped_pedestrian">
        <personTrip from="-938823647#0" to="-405563751#1" modes="public"/>
    </person>
    <person id="ped73" depart="58.40" type="ped_pedestrian">
        <personTrip from="22988931#14" to="427480105" modes="public"/>
    </person>
    <person id="ped74" depart="59.20" type="ped_pedestrian">
        <personTrip from="-36914279#4" to="-68676847#5" modes="public"/>
    </person>
    <person id="ped75" depart="60.00" type="ped_pedestrian">
        <personTrip from="922401019" to="32960826#1" modes="public"/>
    </person>
    <person id="ped76" depart="60.80" type="ped_pedestrian">
        <personTrip from="10750085#3" to="191883904#4" modes="public"/>
    </person>
    <person id="ped77" depart="61.60" type="ped_pedestrian">
        <personTrip from="-25486350#4" to="-405563807" modes="public"/>
    </person>
    <person id="ped78" depart="62.40" type="ped_pedestrian">
        <personTrip from="-70955197" to="278491962#6" modes="public"/>
    </person>
    <person id="ped79" depart="63.20" type="ped_pedestrian">
        <personTrip from="-43069512" to="-405563779" modes="public"/>
    </person>
    <person id="ped80" depart="64.00" type="ped_pedestrian">
        <personTrip from="-186554564#1" to="32385400" modes="public"/>
    </person>
    <person id="ped81" depart="64.80" type="ped_pedestrian">
        <personTrip from="-43065199#1" to="711248904#0" modes="public"/>
    </person>
    <person id="ped82" depart="65.60" type="ped_pedestrian">
        <personTrip from="611113396#4" to="-186554564#0" modes="public"/>
    </person>
    <person id="ped83" depart="66.40" type="ped_pedestrian">
        <personTrip from="-462839995" to="36892268#2" modes="public"/>
    </person>
    <person id="ped84" depart="67.20" type="ped_pedestrian">
        <personTrip from="-405563760" to="-28220433#1" modes="public"/>
    </person>
    <person id="ped85" depart="68.00" type="ped_pedestrian">
        <personTrip from="782019791" to="24982516#4" modes="public"/>
    </person>
    <person id="ped86" depart="68.80" type="ped_pedestrian">
        <personTrip from="146902422#2" to="519581865#2" modes="public"/>
    </person>
    <person id="ped87" depart="69.60" type="ped_pedestrian">
        <personTrip from="543235794#0" to="-36892278#0" modes="public"/>
    </person>
    <person id="ped88" depart="70.40" type="ped_pedestrian">
        <personTrip from="-23187853" to="10426710#0" modes="public"/>
    </person>
    <person id="ped89" depart="71.20" type="ped_pedestrian">
        <personTrip from="-939743404" to="124928280#2" modes="public"/>
    </person>
    <person id="ped90" depart="72.00" type="ped_pedestrian">
        <personTrip from="415882500" to="36892274#1" modes="public"/>
    </person>
    <person id="ped91" depart="72.80" type="ped_pedestrian">
        <personTrip from="843550998" to="-236495314#0" modes="public"/>
    </person>
    <person id="ped92" depart="73.60" type="ped_pedestrian">
        <personTrip from="-822876462#1" to="-70955248" modes="public"/>
    </person>
    <person id="ped93" depart="74.40" type="ped_pedestrian">
        <personTrip from="61425970#0" to="-4747816#0" modes="public"/>
    </person>
    <person id="ped94" depart="75.20" type="ped_pedestrian">
        <personTrip from="-36892277#0" to="113656536#1" modes="public"/>
    </person>
    <person id="ped95" depart="76.00" type="ped_pedestrian">
        <personTrip from="-922493988" to="-53818463#0" modes="public"/>
    </person>
    <person id="ped96" depart="76.80" type="ped_pedestrian">
        <personTrip from="-4752213" to="71957666" modes="public"/>
    </person>
    <person id="ped97" depart="77.60" type="ped_pedestrian">
        <personTrip from="10903615#3" to="61425968#0" modes="public"/>
    </person>
    <person id="ped98" depart="78.40" type="ped_pedestrian">
        <personTrip from="23186987" to="-166445416#4" modes="public"/>
    </person>
    <person id="ped99" depart="79.20" type="ped_pedestrian">
        <personTrip from="951227873#3" to="594982247#0" modes="public"/>
    </person>
    <person id="ped100" depart="80.00" type="ped_pedestrian">
        <personTrip from="817451241" to="722504211#3" modes="public"/>
    </person>
    <person id="ped101" depart="80.80" type="ped_pedestrian">
        <personTrip from="59875816#1" to="-327664783#0" modes="public"/>
    </person>
    <person id="ped102" depart="81.60" type="ped_pedestrian">
        <personTrip from="165497136#6" to="-405563757#7" modes="public"/>
    </person>
    <person id="ped103" depart="82.40" type="ped_pedestrian">
        <personTrip from="-82173487#1" to="-172477782#6" modes="public"/>
    </person>
    <person id="ped104" depart="83.20" type="ped_pedestrian">
        <personTrip from="-800990621" to="843551003#1" modes="public"/>
    </person>
    <person id="ped105" depart="84.00" type="ped_pedestrian">
        <personTrip from="-511175443#0" to="519581862#5" modes="public"/>
    </person>
    <person id="ped106" depart="84.80" type="ped_pedestrian">
        <personTrip from="119038916#2" to="-938823647#0" modes="public"/>
    </person>
    <person id="ped107" depart="85.60" type="ped_pedestrian">
        <personTrip from="807136738#0" to="922414128" modes="public"/>
    </person>
    <person id="ped108" depart="86.40" type="ped_pedestrian">
        <personTrip from="238793070" to="405563783#0" modes="public"/>
    </person>
    <person id="ped109" depart="87.20" type="ped_pedestrian">
        <personTrip from="-31000261#2" to="-611094394#0" modes="public"/>
    </person>
    <person id="ped110" depart="88.00" type="ped_pedestrian">
        <personTrip from="817451239" to="25486350#8" modes="public"/>
    </person>
    <person id="ped111" depart="88.80" type="ped_pedestrian">
        <personTrip from="23170152#2" to="4729000#2" modes="public"/>
    </person>
    <person id="ped112" depart="89.60" type="ped_pedestrian">
        <personTrip from="-172477367" to="26600322#3" modes="public"/>
    </person>
    <person id="ped113" depart="90.40" type="ped_pedestrian">
        <personTrip from="176974334#0" to="610165273#7" modes="public"/>
    </person>
    <person id="ped114" depart="91.20" type="ped_pedestrian">
        <personTrip from="-31770738#2" to="808705863#2" modes="public"/>
    </person>
    <person id="ped115" depart="92.00" type="ped_pedestrian">
        <personTrip from="-222084468#13" to="-36892270#6" modes="public"/>
    </person>
    <person id="ped116" depart="92.80" type="ped_pedestrian">
        <personTrip from="28331540" to="36892276#5" modes="public"/>
    </person>
    <person id="ped117" depart="93.60" type="ped_pedestrian">
        <personTrip from="-43154548#4" to="-25378761#3" modes="public"/>
    </person>
    <person id="ped118" depart="94.40" type="ped_pedestrian">
        <personTrip from="70564179#1" to="-4747572" modes="public"/>
    </person>
    <person id="ped119" depart="95.20" type="ped_pedestrian">
        <personTrip from="28266064#0" to="30789152#10" modes="public"/>
    </person>
    <person id="ped120" depart="96.00" type="ped_pedestrian">
        <personTrip from="-892156372#1" to="263823741#2" modes="public"/>
    </person>
    <person id="ped121" depart="96.80" type="ped_pedestrian">
        <personTrip from="209355599#3" to="782019788#0" modes="public"/>
    </person>
    <person id="ped122" depart="97.60" type="ped_pedestrian">
        <personTrip from="-37211822" to="405563777#2" modes="public"/>
    </person>
    <person id="ped123" depart="98.40" type="ped_pedestrian">
        <personTrip from="-468069521#1" to="-817444474#0" modes="public"/>
    </person>
    <person id="ped124" depart="99.20" type="ped_pedestrian">
        <personTrip from="36892271#2" to="-611101999#1" modes="public"/>
    </person>
    <person id="ped125" depart="100.00" type="ped_pedestrian">
        <personTrip from="-7002899#5" to="4743291#3" modes="public"/>
    </person>
    <person id="ped126" depart="100.80" type="ped_pedestrian">
        <personTrip from="-197355976" to="119136535#0" modes="public"/>
    </person>
    <person id="ped127" depart="101.60" type="ped_pedestrian">
        <personTrip from="942708515#2" to="922493987" modes="public"/>
    </person>
    <person id="ped128" depart="102.40" type="ped_pedestrian">
        <personTrip from="-197355979#2" to="-405563757#3" modes="public"/>
    </person>
    <person id="ped129" depart="103.20" type="ped_pedestrian">
        <personTrip from="-511175443#0" to="777668846#0" modes="public"/>
    </person>
    <person id="ped130" depart="104.00" type="ped_pedestrian">
        <personTrip from="7016592#7" to="7016588#4" modes="public"/>
    </person>
    <person id="ped131" depart="104.80" type="ped_pedestrian">
        <personTrip from="-789153040" to="-31770738#4" modes="public"/>
    </person>
    <person id="ped132" depart="105.60" type="ped_pedestrian">
        <personTrip from="573269389#0" to="394019920" modes="public"/>
    </person>
    <person id="ped133" depart="106.40" type="ped_pedestrian">
        <personTrip from="30253922#8" to="845392677" modes="public"/>
    </person>
    <person id="ped134" depart="107.20" type="ped_pedestrian">
        <personTrip from="32961789" to="-10426716#0" modes="public"/>
    </person>
    <person id="ped135" depart="108.00" type="ped_pedestrian">
        <personTrip from="563861738" to="-611101996#5" modes="public"/>
    </person>
    <person id="ped136" depart="108.80" type="ped_pedestrian">
        <personTrip from="350071169#0" to="786163229" modes="public"/>
    </person>
    <person id="ped137" depart="109.60" type="ped_pedestrian">
        <personTrip from="-28331539#1" to="-24982516#8" modes="public"/>
    </person>
    <person id="ped138" depart="110.40" type="ped_pedestrian">
        <personTrip from="-24323978#7" to="236495313" modes="public"/>
    </person>
    <person id="ped139" depart="111.20" type="ped_pedestrian">
        <personTrip from="-53657700#4" to="29090214" modes="public"/>
    </person>
    <person id="ped140" depart="112.00" type="ped_pedestrian">
        <personTrip from="405563782#5" to="-36920585" modes="public"/>
    </person>
    <person id="ped141" depart="112.80" type="ped_pedestrian">
        <personTrip from="32605365#0" to="-508036761" modes="public"/>
    </person>
    <person id="ped142" depart="113.60" type="ped_pedestrian">
        <personTrip from="166445409#1" to="710508763" modes="public"/>
    </person>
    <person id="ped143" depart="114.40" type="ped_pedestrian">
        <personTrip from="598484330#0" to="-23186942#1" modes="public"/>
    </person>
    <person id="ped144" depart="115.20" type="ped_pedestrian">
        <personTrip from="-939743404" to="-537611467#0" modes="public"/>
    </person>
    <person id="ped145" depart="116.00" type="ped_pedestrian">
        <personTrip from="-10425737#3" to="486150360#1" modes="public"/>
    </person>
    <person id="ped146" depart="116.80" type="ped_pedestrian">
        <personTrip from="327664764" to="-4829962#4" modes="public"/>
    </person>
    <person id="ped147" depart="117.60" type="ped_pedestrian">
        <personTrip from="456214642" to="23187854#0" modes="public"/>
    </person>
    <person id="ped148" depart="118.40" type="ped_pedestrian">
        <personTrip from="10425592#2" to="-10571561#19" modes="public"/>
    </person>
    <person id="ped149" depart="119.20" type="ped_pedestrian">
        <personTrip from="-209355599#0" to="7016608#10" modes="public"/>
    </person>
    <person id="ped150" depart="120.00" type="ped_pedestrian">
        <personTrip from="70955258" to="23186944" modes="public"/>
    </person>
    <person id="ped151" depart="120.80" type="ped_pedestrian">
        <personTrip from="594982231#0" to="25921997#1" modes="public"/>
    </person>
    <person id="ped152" depart="121.60" type="ped_pedestrian">
        <personTrip from="-307698862#15" to="-268956419" modes="public"/>
    </person>
    <person id="ped153" depart="122.40" type="ped_pedestrian">
        <personTrip from="-625070025#1" to="70908524#0" modes="public"/>
    </person>
    <person id="ped154" depart="123.20" type="ped_pedestrian">
        <personTrip from="537581578#1" to="611113419#0" modes="public"/>
    </person>
    <person id="ped155" depart="124.00" type="ped_pedestrian">
        <personTrip from="70908524#0" to="-39749460#2" modes="public"/>
    </person>
    <person id="ped156" depart="124.80" type="ped_pedestrian">
        <personTrip from="-4747816#9" to="-24212179#1" modes="public"/>
    </person>
    <person id="ped157" depart="125.60" type="ped_pedestrian">
        <personTrip from="511308706#0" to="7016608#7" modes="public"/>
    </person>
    <person id="ped158" depart="126.40" type="ped_pedestrian">
        <personTrip from="-842567085" to="30789152#9" modes="public"/>
    </person>
    <person id="ped159" depart="127.20" type="ped_pedestrian">
        <personTrip from="-31000261#0" to="759425700#3" modes="public"/>
    </person>
    <person id="ped160" depart="128.00" type="ped_pedestrian">
        <personTrip from="625070018#0" to="83146850#0" modes="public"/>
    </person>
    <person id="ped161" depart="128.80" type="ped_pedestrian">
        <personTrip from="543273847" to="7016597#1" modes="public"/>
    </person>
    <person id="ped162" depart="129.60" type="ped_pedestrian">
        <personTrip from="-118782210#1" to="43106175#1" modes="public"/>
    </person>
    <person id="ped163" depart="130.40" type="ped_pedestrian">
        <personTrip from="-70564179#1" to="768079795" modes="public"/>
    </person>
    <person id="ped164" depart="131.20" type="ped_pedestrian">
        <personTrip from="53818465#3" to="62034202#1" modes="public"/>
    </person>
    <person id="ped165" depart="132.00" type="ped_pedestrian">
        <personTrip from="543273847" to="-519581884#0" modes="public"/>
    </person>
    <person id="ped166" depart="132.80" type="ped_pedestrian">
        <personTrip from="519581915#2" to="-24710790" modes="public"/>
    </person>
    <person id="ped167" depart="133.60" type="ped_pedestrian">
        <personTrip from="7002897#3" to="611113394" modes="public"/>
    </person>
    <person id="ped168" depart="134.40" type="ped_pedestrian">
        <personTrip from="-405563785" to="563861735#0" modes="public"/>
    </person>
    <person id="ped169" depart="135.20" type="ped_pedestrian">
        <personTrip from="123042084" to="-61425970#0" modes="public"/>
    </person>
    <person id="ped170" depart="136.00" type="ped_pedestrian">
        <personTrip from="53657700#4" to="-4304460#0" modes="public"/>
    </person>
    <person id="ped171" depart="136.80" type="ped_pedestrian">
        <personTrip from="-114286006" to="-36892895#0" modes="public"/>
    </person>
    <person id="ped172" depart="137.60" type="ped_pedestrian">
        <personTrip from="-7016643#1" to="620499401" modes="public"/>
    </person>
    <person id="ped173" depart="138.40" type="ped_pedestrian">
        <personTrip from="817444474#2" to="-53818465#3" modes="public"/>
    </person>
    <person id="ped174" depart="139.20" type="ped_pedestrian">
        <personTrip from="328253914" to="-818694507" modes="public"/>
    </person>
    <person id="ped175" depart="140.00" type="ped_pedestrian">
        <personTrip from="843372844#1" to="22780140" modes="public"/>
    </person>
    <person id="ped176" depart="140.80" type="ped_pedestrian">
        <personTrip from="787012668#2" to="-24982516#8" modes="public"/>
    </person>
    <person id="ped177" depart="141.60" type="ped_pedestrian">
        <personTrip from="818694507" to="-33519353" modes="public"/>
    </person>
    <person id="ped178" depart="142.40" type="ped_pedestrian">
        <personTrip from="813479774#2" to="-511175443#1" modes="public"/>
    </person>
    <person id="ped179" depart="143.20" type="ped_pedestrian">
        <personTrip from="-24711032" to="10571561#13" modes="public"/>
    </person>
    <person id="ped180" depart="144.00" type="ped_pedestrian">
        <personTrip from="41376839#1" to="-693540443#1" modes="public"/>
    </person>
    <person id="ped181" depart="144.80" type="ped_pedestrian">
        <personTrip from="29090219#1" to="178463294" modes="public"/>
    </person>
    <person id="ped182" depart="145.60" type="ped_pedestrian">
        <personTrip from="-803217871#2" to="25378759#1" modes="public"/>
    </person>
    <person id="ped183" depart="146.40" type="ped_pedestrian">
        <personTrip from="-4764255" to="405563755" modes="public"/>
    </person>
    <person id="ped184" depart="147.20" type="ped_pedestrian">
        <personTrip from="-10425554#3" to="722504209#1" modes="public"/>
    </person>
    <person id="ped185" depart="148.00" type="ped_pedestrian">
        <personTrip from="22988925#1" to="405563788#2" modes="public"/>
    </person>
    <person id="ped186" depart="148.80" type="ped_pedestrian">
        <personTrip from="457873375#1" to="36892270#3" modes="public"/>
    </person>
    <person id="ped187" depart="149.60" type="ped_pedestrian">
        <personTrip from="-782019790#0" to="-180678256#8" modes="public"/>
    </person>
    <person id="ped188" depart="150.40" type="ped_pedestrian">
        <personTrip from="35175082#1" to="-70545348#1" modes="public"/>
    </person>
    <person id="ped189" depart="151.20" type="ped_pedestrian">
        <personTrip from="-7002890#0" to="598484336#0" modes="public"/>
    </person>
    <person id="ped190" depart="152.00" type="ped_pedestrian">
        <personTrip from="405563788#4" to="-611101999#2" modes="public"/>
    </person>
    <person id="ped191" depart="152.80" type="ped_pedestrian">
        <personTrip from="-630524044" to="-843372843#1" modes="public"/>
    </person>
    <person id="ped192" depart="153.60" type="ped_pedestrian">
        <personTrip from="-82189124#1" to="-610165273#1" modes="public"/>
    </person>
    <person id="ped193" depart="154.40" type="ped_pedestrian">
        <personTrip from="-26600322#4" to="-922369781" modes="public"/>
    </person>
    <person id="ped194" depart="155.20" type="ped_pedestrian">
        <personTrip from="789153040" to="36892894#2" modes="public"/>
    </person>
    <person id="ped195" depart="156.00" type="ped_pedestrian">
        <personTrip from="70955240" to="307698862#9" modes="public"/>
    </person>
    <person id="ped196" depart="156.80" type="ped_pedestrian">
        <personTrip from="-611101999#6" to="23186952" modes="public"/>
    </person>
    <person id="ped197" depart="157.60" type="ped_pedestrian">
        <personTrip from="-10063131#2" to="-56757210" modes="public"/>
    </person>