<?xml version="1.0" encoding="UTF-8"?>

<!-- generated on 2024-11-27 12:49:50.726000 by ptlines2flows.py v1_21_0+0982-fff2aa94565
<configuration>
    <net-file value="osm.net.xml.gz"/>
    <ptlines-file value="osm_ptlines.xml"/>
    <ptstops-file value="osm_stops.add.xml"/>
    <output-file value="osm_pt.rou.xml"/>
    <min-stops value="0"/>
    <extend-to-fringe value="True"/>
    <random-begin value="True"/>
    <seed value="42"/>
    <ignore-errors value="True"/>
    <vtype-prefix value="pt_"/>
    <verbose value="True"/>
</configuration>
-->

<routes xmlns:xsi="http://www.w3.org/2001/XMLSchema-instance" xsi:noNamespaceSchemaLocation="http://sumo.dlr.de/xsd/routes_file.xsd">
    <vType id="pt_bus" vClass="bus"/>
    <vType id="pt_tram" vClass="tram"/>
    <vType id="pt_train" vClass="rail"/>
    <vType id="pt_subway" vClass="subway"/>
    <vType id="pt_light_rail" vClass="rail_urban"/>
    <vType id="pt_monorail" vClass="rail_urban"/>
    <vType id="pt_trolleybus" vClass="bus"/>
    <vType id="pt_minibus" vClass="bus"/>
    <vType id="pt_share_taxi" vClass="taxi"/>
    <vType id="pt_aerialway" vClass="cable_car" length="2.5" width="2" personCapacity="4"/>
    <vType id="pt_ferry" vClass="ship"/>
    <route id="pt_bus_416:0" edges="-108915817#1" >
        <stop busStop="-2304877721" duration="20" until="79.0"/> <!-- Am Bruchkamp -->
    </route>
    <route id="pt_bus_113:0" edges="24803131 931767245 146902430#1 146902430#2 146902430#3 146902430#4 146902430#5 611113394" >
        <stop busStop="2078032882" duration="20" until="40.0"/> <!-- Heideblick -->
        <stop busStop="481115891" duration="20" until="133.0"/> <!-- Aschenkamp -->
    </route>
    <route id="pt_bus_416:3" edges="-108915817#1" >
        <stop busStop="-2304877721" duration="20" until="78.0"/> <!-- Am Bruchkamp -->
    </route>
    <route id="pt_bus_113:1" edges="24803131 931767245 146902430#1 146902430#2 146902430#3 146902430#4 146902430#5 611113394" >
        <stop busStop="2078032882" duration="20" until="70.0"/> <!-- Heideblick -->
        <stop busStop="481115891" duration="20" until="161.0"/> <!-- Aschenkamp -->
    </route>
    <route id="pt_bus_436:0" edges="-165484800#1 -165484800#0 -151627454 151627445 165484797 -151627458#1 -151627458#0 427480092" >
        <stop busStop="-632920367" duration="20" until="64.0"/> <!-- Hermann-Blenk-Straße -->
    </route>
    <route id="pt_bus_436:1" edges="-427480092 -262049413 151627458#1 165484799 151627454 165484800#0 165484800#1" >
        <stop busStop="632920372" duration="20" until="79.0"/> <!-- Hermann-Blenk-Straße -->
    </route>
    <route id="pt_bus_112:0" edges="23187673#1 53650436#1 53650436#3 53650436#4 24803131 931767245 146902430#1 146902430#2 146902430#3 146902430#4 146902430#5 611113394" >
        <stop busStop="250749715" duration="20" until="46.0"/> <!-- Heideblick -->
        <stop busStop="481115891" duration="20" until="205.0"/> <!-- Aschenkamp -->
    </route>
    <route id="pt_bus_480:0" edges="10743323 -47007889 -108915782#2 -33199416#8 -33199416#7 -33199416#6 -33199416#5 -33199416#4 -33199416#2 -33199416#0 -33199328 -509331932 -611101972 -328670992#2 -328670992#1 -328670992#0 -509331931 -113049480#3 -113049480#1 -113049480#0" >
        <stop busStop="-2303819179" duration="20" until="98.0"/> <!-- Schlesierweg -->
        <stop busStop="-2304877718" duration="20" until="171.0"/> <!-- Am Grasplatz -->
        <stop busStop="-2126769010" duration="20" until="202.0"/> <!-- Am Grasplatz -->
    </route>
    <route id="pt_bus_433:0" edges="-108915817#1 -108915817#0 108915796 509331931 328670992#0 328670992#1 328670992#2 611101972 509331932 509331935 5989176#0 5989176#1 5989176#2 188116371#0 188116371#1 22780141#0 22780141#1" >
        <stop busStop="-2304877721" duration="20" until="79.0"/> <!-- Am Bruchkamp -->
    </route>
    <route id="pt_tram_10:0" edges="728830240#1 859066421#1 859066418#1 859066419#1 859066419#2 806561072#0 806561072#1 806561071#0 806561071#3 806561071#4 806561071#5 245334408#0 245334408#1 245334408#2 245334408#3 245334408#4 245334408#5" >
        <stop busStop="2525484930" duration="20" until="44.0"/> <!-- Carl-Miele-Straße -->
        <stop busStop="2525484873" duration="20" until="124.0"/> <!-- Lincolnsiedlung -->
        <stop busStop="333148448" duration="20" until="225.0"/> <!-- Hansestraße Ost -->
        <stop busStop="2525484946" duration="20" until="293.0"/> <!-- Nordhoffstraße -->
        <stop busStop="54143138" duration="20" until="380.0"/> <!-- Schmalbachstraße -->
    </route>
    <route id="pt_bus_434:1" edges="-611113394 -146902430#5 -146902430#4 -146902430#3 -146902430#2 -146902430#1 23187673#0 23187673#1" >
        <stop busStop="-4539421793" duration="20" until="38.0"/> <!-- Aschenkamp -->
    </route>
    <route id="pt_bus_434:0" edges="23187673#1 53650436#1 53650436#3 53650436#4 24803131 931767245 146902430#1 146902430#2 146902430#3 146902430#4 146902430#5 611113394" >
        <stop busStop="250749715" duration="20" until="46.0"/> <!-- Heideblick -->
        <stop busStop="481115891" duration="20" until="192.0"/> <!-- Aschenkamp -->
    </route>
    <route id="pt_tram_10:1" edges="245334406#0 245334406#3 245334406#4 245334406#5 245334406#6 245334406#7 806561073#0 806561073#1 806561073#2 806561073#5 806561074 859066420#0 859066420#1 859066420#2 728830241#1 7006207#0 7006207#1 197758609 7006207#3 7006207#4 7006207#5 7006207#6 728830240#0 728830240#1" >
        <stop busStop="54143139" duration="20" until="50.0"/> <!-- Schmalbachstraße -->
        <stop busStop="54143135" duration="20" until="144.0"/> <!-- Nordhoffstraße -->
        <stop busStop="333148451" duration="20" until="260.0"/> <!-- Hansestraße Ost -->
        <stop busStop="54143083" duration="20" until="334.0"/> <!-- Lincolnsiedlung -->
        <stop busStop="2525484930" duration="20" until="476.0"/> <!-- Carl-Miele-Straße -->
    </route>
    <route id="pt_bus_434:4" edges="-611113394 -146902430#5 -146902430#4 -146902430#3 -146902430#2 -146902430#1 23187673#0 23187673#1" >
        <stop busStop="-4539421793" duration="20" until="39.0"/> <!-- Aschenkamp -->
    </route>
    <route id="pt_bus_480:1" edges="113049480#0 113049480#1 113049480#3 509331931 328670992#0 328670992#1 328670992#2 611101972 509331932 -509331932 -611101972 611101972 509331932 33199328 33199416#0 33199416#2 33199416#4 33199416#5 33199416#6 33199416#7 33199416#8 108915782#1 -108915782#2 108915782#1 108915782#3 -10743323" >
        <stop busStop="2304877719" duration="20" until="81.0"/> <!-- Am Grasplatz -->
        <stop busStop="2126769011" duration="20" until="140.0"/> <!-- Am Grasplatz -->
        <stop busStop="4397131130" duration="20" until="219.0"/> <!-- Schlesierweg -->
        <stop busStop="763452451" duration="20" until="279.0"/> <!-- Schlesierweg -->
    </route>
    <route id="pt_bus_434:2" edges="23187673#1 53650436#1 53650436#3 53650436#4 24803131 931767245 146902430#1 146902430#2 146902430#3 146902430#4 146902430#5 611113394" >
        <stop busStop="481115891" duration="20" until="158.0"/> <!-- Aschenkamp -->
    </route>
    <route id="pt_bus_464:1" edges="-427480092 -262049413 151627458#1 165484799 151627454 165484800#0 165484800#1 -165484800#1 -165484800#0 -151627454 151627445 -151627456#1 -151627456#0 -30253920#5 -30253920#4 -30253920#2 -30253920#1 -30253920#0 -611113418#1 -611113418#0 -222114077#7 -222114077#6 -222114077#4 -222114077#3 -222114077#2 -222114077#1 -222114077#0 -4729000#2 -4729000#1 -4729000#0 -511175442 4304991 614969456 25498146 25498147#0 25498147#1 25498147#2 173298393 720932058 173298390 28266064#0 28266063#0 511175444 625075005#1 597760605#1 625075010#1" >
        <stop busStop="632920372" duration="20" until="105.0"/> <!-- Hermann-Blenk-Straße -->
    </route>
    <route id="pt_bus_433:1" edges="-22780141#1 -22780141#0 -188116371#1 -188116371#0 -5989176#2 -5989176#1 -5989176#0 750411120 -509331932 -611101972 -328670992#2 -328670992#1 -328670992#0 -509331931 5987976 108915817#0 108915817#1" >
        <stop busStop="-4080471903" duration="20" until="99.0"/> <!-- Neuruppinstraße -->
        <stop busStop="-763406413" duration="20" until="130.0"/> <!-- Neuruppinstraße -->
        <stop busStop="-763406410" duration="20" until="185.0"/> <!-- Am Grasplatz -->
        <stop busStop="-2126769009" duration="20" until="216.0"/> <!-- Am Grasplatz -->
        <stop busStop="4488574841" duration="20" until="324.0"/> <!-- Am Bruchkamp -->
    </route>
    <route id="pt_bus_434:3" edges="23187673#1 53650436#1 53650436#3 53650436#4 24803131 931767245 146902430#1 146902430#2 146902430#3 146902430#4 146902430#5 611113394" >
        <stop busStop="481115891" duration="20" until="191.0"/> <!-- Aschenkamp -->
    </route>
    <route id="pt_bus_464:2" edges="-611113394 146902424#0 146902424#1 146902424#3 146902424#6 146902422#0 146902422#1 146902422#2 146902422#4 -611113397#0 -31000152#4 -31000152#3 -31000152#1 -31000152#0 -614969458#0 -573227380#10 -573227380#8 -573227380#7 -573227380#6 -573227380#5 -573227380#4 -573227380#3 -573227380#2 -573227380#1 -573227380#0 -32434373 -511175453 -4726357#2 -4726357#1 -4726357#0 -173298393 -25498147#2 -25498147#1 -25498147#0 -25498146 -614969456 -4304991 511175442 4729000#0 4729000#1 4729000#2 222114077#0 222114077#1 222114077#2 222114077#3 222114077#4 222114077#5 222114077#7 611113418#0 611113418#1 30253920#0 30253920#1 30253920#2 30253920#4 30253920#5 358613274 151627456#1 165484797 -151627458#1 -151627458#0 427480092" >
        <stop busStop="-4539421793" duration="20" until="38.0"/> <!-- Aschenkamp -->
    </route>
    <route id="pt_bus_424:0" edges="222336041#2 625075004#0 E0 -28266064#1 -10749352 -511175451 -173298393 -25498147#2 -25498147#1 -25498147#0 -25498146 -614969456 -4304991 511175442 4729000#0 4729000#1 4729000#2 222114077#0 222114077#1 222114077#2 222114077#3 222114077#4 222114077#5 222114077#7 611113418#0 611113418#1 4726410#0 4726410#1 4726410#2 4726410#3 4726410#4 4726410#5 -5640229#6 -5640229#5 -5640229#4 -5640229#3 -5640229#2 -5640229#1 -5640229#0 30253923 -5640228#5 -5640228#4 -5640228#3 -5640228#2 -5640228#1 -5640228#0" >
        <stop busStop="1780723613" duration="20" until="38.0"/> <!-- Lincolnsiedlung -->
        <stop busStop="-310417058" duration="20" until="204.0"/> <!-- Im Steinkampe -->
        <stop busStop="333697505" duration="20" until="301.0"/> <!-- Am Berge -->
        <stop busStop="2313104473" duration="20" until="367.0"/> <!-- Dammwiese -->
        <stop busStop="-2310890309" duration="20" until="468.0"/> <!-- Pappelallee -->
        <stop busStop="2310890289" duration="20" until="546.0"/> <!-- Am Platz -->
    </route>
    <route id="pt_bus_434:5" edges="-611113394 -146902430#5 -146902430#4 -146902430#3 -146902430#2 -146902430#1 23187673#0 23187673#1" >
        <stop busStop="-4539421793" duration="20" until="60.0"/> <!-- Aschenkamp -->
    </route>
    <route id="pt_bus_433:2" edges="-108915817#1 -108915817#0 108915796 509331931 328670992#0 328670992#1 328670992#2 611101972 509331932 509331935 5989176#0 5989176#1 5989176#2 188116371#0 188116371#1 22780141#0 22780141#1" >
        <stop busStop="-2304877721" duration="20" until="79.0"/> <!-- Am Bruchkamp -->
    </route>
    <route id="pt_bus_414:5" edges="70908501#2 299068702#0 70908501#2 -611101996#5 -611101996#4 -611101996#3 -611101996#2 -611101996#0 -625070018#1 -625070018#0 -625070025#1 -625070025#0" >
        <stop busStop="4539379541" duration="20" until="36.0"/> <!-- Ernst-Böhme-Straße -->
        <stop busStop="842199418" duration="20" until="90.0"/> <!-- Ernst-Böhme-Straße -->
        <stop busStop="-4539379540" duration="20" until="155.0"/> <!-- Am Hafen -->
        <stop busStop="-844172737" duration="20" until="186.0"/> <!-- Am Hafen -->
        <stop busStop="-4539379539" duration="20" until="247.0"/> <!-- Waller Weg -->
        <stop busStop="-844172689" duration="20" until="278.0"/> <!-- Waller Weg -->
    </route>
    <route id="pt_bus_191:0" edges="-611113394 -146902430#5 -146902430#4 -146902430#3 -146902430#2 -146902430#1 23187673#0 23187673#1" >
        <stop busStop="-4539421793" duration="20" until="39.0"/> <!-- Aschenkamp -->
    </route>
    <route id="pt_bus_191:2" edges="-611113394 -146902430#5 -146902430#4 -146902430#3 -146902430#2 -146902430#1 23187673#0 23187673#1" >
        <stop busStop="-4539421793" duration="20" until="52.0"/> <!-- Aschenkamp -->
    </route>
    <route id="pt_bus_111:0" edges="-611113394 -146902430#5 -146902430#4 -146902430#3 -146902430#2 -146902430#1 23187673#0 23187673#1" >
        <stop busStop="-4539421793" duration="20" until="65.0"/> <!-- Aschenkamp -->
    </route>
    <route id="pt_bus_191:1" edges="23187673#1 53650436#1 53650436#3 53650436#4 24803131 931767245 146902430#1 146902430#2 146902430#3 146902430#4 146902430#5 611113394" >
        <stop busStop="250749715" duration="20" until="45.0"/> <!-- Heideblick -->
        <stop busStop="481115891" duration="20" until="191.0"/> <!-- Aschenkamp -->
    </route>
    <route id="pt_bus_191:3" edges="23187673#1 53650436#1 53650436#3 53650436#4 24803131 931767245 146902430#1 146902430#2 146902430#3 146902430#4 146902430#5 611113394" >
        <stop busStop="250749715" duration="20" until="63.0"/> <!-- Heideblick -->
        <stop busStop="481115891" duration="20" until="210.0"/> <!-- Aschenkamp -->
    </route>
    <route id="pt_tram_1:0" edges="859066434#3 859066433#1 859066433#2 859066433#3 859066431#1 859066431#2 859066427#2 859066426#1 859066426#2 859066423#1 728830240#0 728830240#1 859066421#1 859066418#1 859066419#1 859066419#2 806561072#0 806561072#1 806561071#0 806561071#3 806561071#4 806561071#5 245334408#0 245334408#1 245334408#2 245334408#3 245334408#4 245334408#5" >
        <stop busStop="54142977" duration="20" until="41.0"/> <!-- Heideblick -->
        <stop busStop="54143009" duration="20" until="117.0"/> <!-- Veltenhöfer Straße -->
        <stop busStop="2525484928" duration="20" until="221.0"/> <!-- Geibelstraße -->
        <stop busStop="2525484930" duration="20" until="323.0"/> <!-- Carl-Miele-Straße -->
        <stop busStop="2525484873" duration="20" until="438.0"/> <!-- Lincolnsiedlung -->
        <stop busStop="333148448" duration="20" until="531.0"/> <!-- Hansestraße Ost -->
        <stop busStop="2525484946" duration="20" until="599.0"/> <!-- Nordhoffstraße -->
        <stop busStop="54143138" duration="20" until="686.0"/> <!-- Schmalbachstraße -->
    </route>
    <route id="pt_bus_111:1" edges="23187673#1 53650436#1 53650436#3 53650436#4 24803131 931767245 146902430#1 146902430#2 146902430#3 146902430#4 146902430#5 611113394" >
        <stop busStop="250749715" duration="20" until="62.0"/> <!-- Heideblick -->
        <stop busStop="481115891" duration="20" until="207.0"/> <!-- Aschenkamp -->
    </route>
    <route id="pt_bus_424:1" edges="5640228#0 5640228#1 5640228#2 5640228#3 5640228#4 5640228#5 -30253923 30253923 -30253923 5640229#0 5640229#1 5640229#2 5640229#3 5640229#4 5640229#5 5640229#6 -4726410#5 -4726410#4 -4726410#3 -4726410#2 -4726410#1 -4726410#0 -611113418#1 -611113418#0 -222114077#7 -222114077#6 -222114077#4 -222114077#3 -222114077#2 -222114077#1 -222114077#0 -4729000#2 -4729000#1 -4729000#0 -511175442 4304991 614969456 25498146 25498147#0 25498147#1 25498147#2 173298393 720932058 173298390 28266064#0 28266063#0 511175444 625075005#1 597760605#1 625075010#1" >
        <stop busStop="-4393542161" duration="20" until="71.0"/> <!-- Am Platz -->
        <stop busStop="-333325794" duration="20" until="136.0"/> <!-- Am Platz -->
        <stop busStop="2310890299" duration="20" until="215.0"/> <!-- Pappelallee -->
        <stop busStop="333697509" duration="20" until="246.0"/> <!-- Pappelallee -->
        <stop busStop="-2310869837" duration="20" until="332.0"/> <!-- Dammwiese -->
        <stop busStop="-333697504" duration="20" until="363.0"/> <!-- Dammwiese -->
        <stop busStop="-333697507" duration="20" until="438.0"/> <!-- Am Berge -->
        <stop busStop="310417074" duration="20" until="545.0"/> <!-- Im Steinkampe -->
        <stop busStop="2313104483" duration="20" until="683.0"/> <!-- Lincolnsiedlung -->
    </route>
    <route id="pt_tram_1:1" edges="245334406#0 245334406#3 245334406#4 245334406#5 245334406#6 245334406#7 806561073#0 806561073#1 806561073#2 806561073#5 806561074 859066420#0 859066420#1 859066420#2 728830241#1 859066424#0 859066424#1 859066424#2 859066424#3 859066424#4 859066424#5 859066428#1 859066428#2 859066429#2 859066430#1 859066430#2 859066434#1 859066434#2 859066434#3" >
        <stop busStop="54143139" duration="20" until="50.0"/> <!-- Schmalbachstraße -->
        <stop busStop="54143135" duration="20" until="144.0"/> <!-- Nordhoffstraße -->
        <stop busStop="333148451" duration="20" until="224.0"/> <!-- Hansestraße Ost -->
        <stop busStop="54143083" duration="20" until="298.0"/> <!-- Lincolnsiedlung -->
        <stop busStop="54153340" duration="20" until="389.0"/> <!-- Carl-Miele-Straße -->
        <stop busStop="54143015" duration="20" until="485.0"/> <!-- Geibelstraße -->
        <stop busStop="54143012" duration="20" until="522.0"/> <!-- Veltenhöfer Straße -->
        <stop busStop="54142977" duration="20" until="641.0"/> <!-- Heideblick -->
    </route>
    <route id="pt_bus_414:1" edges="4726782#0 4726782#1 4726782#3 4726782#4 4726782#5 10750085#1 10750085#2 10750085#3 10750085#4 10750085#5 10750085#6 10750085#7 657618384 47291034#0 47291034#1 47291034#2 47291034#3 173759898#0 173759898#1 173759898#2 24787127#0 24787127#1 -33519202#2 -33519202#1 33519205#1 33519205#2 173759898#1 173759898#2 173759898#3 173759898#4 -173759898#4 -173759898#3 24787127#0 24787127#1 -24787127#1 -24787127#0 173759898#3 173759898#4 7016618#0 7016618#1 54981199#0 82457821#1" >
        <stop busStop="4539379534" duration="20" until="108.0"/> <!-- Sandanger -->
        <stop busStop="844172701" duration="20" until="139.0"/> <!-- Sandanger -->
        <stop busStop="4103249697" duration="20" until="233.0"/> <!-- Dreisch -->
        <stop busStop="844172703" duration="20" until="341.0"/> <!-- Dreisch -->
        <stop busStop="4539379535" duration="20" until="414.0"/> <!-- Wendener Weg -->
        <stop busStop="844172696" duration="20" until="533.0"/> <!-- Wendener Weg -->
        <stop busStop="4103284302" duration="20" until="612.0"/> <!-- Ernst-Böhme-Straße -->
        <stop busStop="844172692" duration="20" until="643.0"/> <!-- Ernst-Böhme-Straße -->
    </route>
    <route id="pt_bus_424:5" edges="222336041#2 625075004#0 E0 -28266064#1 -10749352 -511175451 -173298393 -25498147#2 -25498147#1 -25498147#0 -25498146 -614969456 -4304991 511175442 4729000#0 4729000#1 4729000#2 222114077#0 222114077#1 222114077#2 222114077#3 222114077#4 222114077#5 222114077#7 611113418#0 611113418#1 4726410#0 4726410#1 4726410#2 4726410#3 4726410#4 4726410#5 -5640229#6 -5640229#5 -5640229#4 -5640229#3 -5640229#2 -5640229#1 -5640229#0 30253923 -5640228#5 -5640228#4 -5640228#3 -5640228#2 -5640228#1 -5640228#0" >
        <stop busStop="1780723613" duration="20" until="39.0"/> <!-- Lincolnsiedlung -->
        <stop busStop="-310417058" duration="20" until="155.0"/> <!-- Im Steinkampe -->
        <stop busStop="333697505" duration="20" until="253.0"/> <!-- Am Berge -->
        <stop busStop="2313104473" duration="20" until="320.0"/> <!-- Dammwiese -->
        <stop busStop="-2310890309" duration="20" until="424.0"/> <!-- Pappelallee -->
        <stop busStop="2310890289" duration="20" until="502.0"/> <!-- Am Platz -->
    </route>
    <route id="pt_bus_464:0" edges="222336041#2 625075004#0 E0 -28266064#1 -10749352 -511175451 -173298393 -25498147#2 -25498147#1 -25498147#0 -25498146 -614969456 -4304991 511175442 4729000#0 4729000#1 4729000#2 222114077#0 222114077#1 222114077#2 222114077#3 222114077#4 222114077#5 222114077#7 611113418#0 611113418#1 4726410#0 4726410#1 4726410#2 4726410#3 4726410#4 4726410#5 -5640229#6 -5640229#5 -5640229#4 -5640229#3 -5640229#2 -5640229#1 -5640229#0 30253923 -30253923 5640229#0 5640229#1 5640229#2 5640229#3 5640229#4 5640229#5 5640229#6 -4726410#5 -4726410#4 -4726410#3 -4726410#2 -4726410#1 -4726410#0 30253920#0 30253920#1 30253920#2 30253920#4 30253920#5 358613274 151627456#1 165484797 -151627458#1 -151627458#0 427480092" >
        <stop busStop="1780723613" duration="20" until="39.0"/> <!-- Lincolnsiedlung -->
        <stop busStop="-310417058" duration="20" until="185.0"/> <!-- Im Steinkampe -->
        <stop busStop="333697505" duration="20" until="284.0"/> <!-- Am Berge -->
        <stop busStop="2313104473" duration="20" until="351.0"/> <!-- Dammwiese -->
        <stop busStop="-2310890309" duration="20" until="452.0"/> <!-- Pappelallee -->
        <stop busStop="2310890289" duration="20" until="530.0"/> <!-- Am Platz -->
    </route>
    <route id="pt_tram_1:3" edges="859066434#3 859066433#1 859066433#2 859066433#3 859066431#1 859066431#2 859066427#2 859066426#1 859066426#2 859066423#1 728830240#0 728830240#1 859066421#1 859066418#1 859066419#1 859066419#2 806561072#0 806561072#1 806561071#0 806561071#3 806561071#4 806561071#5 245334408#0 245334408#1 245334408#2 245334408#3 245334408#4 245334408#5" >
        <stop busStop="54142977" duration="20" until="41.0"/> <!-- Heideblick -->
        <stop busStop="54143009" duration="20" until="117.0"/> <!-- Veltenhöfer Straße -->
        <stop busStop="2525484928" duration="20" until="197.0"/> <!-- Geibelstraße -->
        <stop busStop="2525484930" duration="20" until="316.0"/> <!-- Carl-Miele-Straße -->
        <stop busStop="2525484873" duration="20" until="387.0"/> <!-- Lincolnsiedlung -->
        <stop busStop="333148448" duration="20" until="514.0"/> <!-- Hansestraße Ost -->
        <stop busStop="2525484946" duration="20" until="582.0"/> <!-- Nordhoffstraße -->
        <stop busStop="54143138" duration="20" until="669.0"/> <!-- Schmalbachstraße -->
    </route>
    <route id="pt_bus_424:6" edges="222336041#2 625075004#0 E0 -28266064#1 -10749352 -511175451 -173298393 -25498147#2 -25498147#1 -25498147#0 -25498146 -614969456 -4304991 511175442 4729000#0 4729000#1 4729000#2 222114077#0 222114077#1 222114077#2 222114077#3 222114077#4 222114077#5 222114077#7 611113418#0 611113418#1 4726410#0 4726410#1 4726410#2 4726410#3 4726410#4 4726410#5 -5640229#6 -5640229#5 -5640229#4 -5640229#3 -5640229#2 -5640229#1 -5640229#0 30253923 -5640228#5 -5640228#4 -5640228#3 -5640228#2 -5640228#1 -5640228#0" >
        <stop busStop="1780723613" duration="20" until="35.0"/> <!-- Lincolnsiedlung -->
        <stop busStop="-310417058" duration="20" until="189.0"/> <!-- Im Steinkampe -->
        <stop busStop="333697505" duration="20" until="288.0"/> <!-- Am Berge -->
        <stop busStop="2313104473" duration="20" until="355.0"/> <!-- Dammwiese -->
        <stop busStop="-2310890309" duration="20" until="457.0"/> <!-- Pappelallee -->
        <stop busStop="2310890289" duration="20" until="537.0"/> <!-- Am Platz -->
    </route>
    <route id="pt_bus_414:4" edges="-625070025#0 -31000150#1 -31000150#0 4752455 31000149 -4752423#2 -4752423#0 -7016592#13 -7016592#12 -7016592#9 -7016592#8 -7016592#7 -7016592#4 -7016592#3 -7016592#2 -7016592#1 -7016592#0 7016592#0 7016592#1 7016592#2 -7016592#2 -7016592#1 -7016592#0 7016601 24823334 -611101998#1 -611101998#0 -82457818#2 -82457818#1 -82457818#0 82457818#0 -82457818#0 -173759898#4 -173759898#3 -173759898#2 -173759898#1 -173759898#0 -47291034#3 -47291034#2 -47291034#1 -47291034#0 -657618384 -10750085#7 -10750085#6 -10750085#5 -10750085#4 -10750085#3 -10750085#2 -10750085#1 -10750085#0 -4726782#4 -4726782#3 -4726782#1 -4726782#0" >
        <stop busStop="-4539379539" duration="20" until="31.0"/> <!-- Waller Weg -->
        <stop busStop="-844172689@6768242" duration="20" until="62.0"/> <!-- Waller Weg -->
        <stop busStop="4103294756" duration="20" until="126.0"/> <!-- Heesfeld -->
        <stop busStop="844172723" duration="20" until="157.0"/> <!-- Heesfeld -->
        <stop busStop="-4103274675" duration="20" until="249.0"/> <!-- Unter den Linden -->
        <stop busStop="-844172698" duration="20" until="306.0"/> <!-- Unter den Linden -->
        <stop busStop="-4103260847" duration="20" until="408.0"/> <!-- Wendener Weg -->
        <stop busStop="-844172702" duration="20" until="461.0"/> <!-- Wendener Weg -->
        <stop busStop="-4103249696" duration="20" until="562.0"/> <!-- Dreisch -->
        <stop busStop="-855328418" duration="20" until="593.0"/> <!-- Dreisch -->
        <stop busStop="-4103243803" duration="20" until="669.0"/> <!-- Sandanger -->
        <stop busStop="-844172717" duration="20" until="700.0"/> <!-- Sandanger -->
    </route>
    <route id="pt_tram_1:2" edges="245334406#0 245334406#3 245334406#4 245334406#5 245334406#6 245334406#7 806561073#0 806561073#1 806561073#2 806561073#5 806561074 859066420#0 859066420#1 859066420#2 728830241#1 859066424#0 859066424#1 859066424#2 859066424#3 859066424#4 859066424#5 859066428#1 859066428#2 859066429#2 859066430#1 859066430#2 859066434#1 859066434#2 859066434#3" >
        <stop busStop="54143139" duration="20" until="50.0"/> <!-- Schmalbachstraße -->
        <stop busStop="54143135" duration="20" until="144.0"/> <!-- Nordhoffstraße -->
        <stop busStop="333148451" duration="20" until="224.0"/> <!-- Hansestraße Ost -->
        <stop busStop="54143083" duration="20" until="298.0"/> <!-- Lincolnsiedlung -->
        <stop busStop="54153340" duration="20" until="420.0"/> <!-- Carl-Miele-Straße -->
        <stop busStop="54143015" duration="20" until="516.0"/> <!-- Geibelstraße -->
        <stop busStop="54143012" duration="20" until="553.0"/> <!-- Veltenhöfer Straße -->
        <stop busStop="54142977" duration="20" until="646.0"/> <!-- Heideblick -->
    </route>
    <route id="pt_bus_424:2" edges="5640228#0 5640228#1 5640228#2 5640228#3 5640228#4 5640228#5 -30253923 30253923 -30253923 5640229#0 5640229#1 5640229#2 5640229#3 5640229#4 5640229#5 5640229#6 -4726410#5 -4726410#4 -4726410#3 -4726410#2 -4726410#1 -4726410#0 -611113418#1 -611113418#0 -222114077#7 -222114077#6 -222114077#4 -222114077#3 -222114077#2 -222114077#1 -222114077#0 -4729000#2 -4729000#1 -4729000#0 -511175442 4304991 614969456 25498146 25498147#0 25498147#1 25498147#2 244424434#0 244424434#1 511175453 32434373 573227380#0 573227380#1 573227380#2 573227380#3 573227380#4 573227380#5 573227380#6 573227380#7 573227380#8 573227380#10 614969458#0 -4747816#9 -4747816#8 -611113395#3 -611113395#2 -611113395#1 -146902424#6 10425554#1 10425554#2 10425555 -146902430#2 -146902430#1 23187673#0 23187673#1" >
        <stop busStop="-4393542161" duration="20" until="70.0"/> <!-- Am Platz -->
        <stop busStop="-333325794" duration="20" until="186.0"/> <!-- Am Platz -->
        <stop busStop="2310890299" duration="20" until="265.0"/> <!-- Pappelallee -->
        <stop busStop="333697509" duration="20" until="297.0"/> <!-- Pappelallee -->
        <stop busStop="-2310869837" duration="20" until="382.0"/> <!-- Dammwiese -->
        <stop busStop="-333697504" duration="20" until="413.0"/> <!-- Dammwiese -->
        <stop busStop="-333697507" duration="20" until="487.0"/> <!-- Am Berge -->
        <stop busStop="4539421794" duration="20" until="768.0"/> <!-- Heideblick -->
    </route>
    <route id="pt_tram_1:5" edges="859066434#3 859066433#1 859066433#2 859066433#3 859066431#1 859066431#2 859066427#2 859066426#1 859066426#2 859066423#1 728830240#0 728830240#1 859066421#1 859066418#1 859066419#1 859066419#2 806561072#0 806561072#1 806561071#0 806561071#3 806561071#4 806561071#5 245334408#0 245334408#1 245334408#2 245334408#3 245334408#4 245334408#5" >
        <stop busStop="54142977" duration="20" until="41.0"/> <!-- Heideblick -->
        <stop busStop="54143009" duration="20" until="117.0"/> <!-- Veltenhöfer Straße -->
        <stop busStop="2525484928" duration="20" until="192.0"/> <!-- Geibelstraße -->
        <stop busStop="2525484930" duration="20" until="294.0"/> <!-- Carl-Miele-Straße -->
        <stop busStop="2525484873" duration="20" until="396.0"/> <!-- Lincolnsiedlung -->
        <stop busStop="333148448" duration="20" until="514.0"/> <!-- Hansestraße Ost -->
        <stop busStop="2525484946" duration="20" until="582.0"/> <!-- Nordhoffstraße -->
        <stop busStop="54143138" duration="20" until="669.0"/> <!-- Schmalbachstraße -->
    </route>
    <route id="pt_bus_424:3" edges="5640228#0 5640228#1 5640228#2 5640228#3 5640228#4 5640228#5 -30253923 30253923 -30253923 5640229#0 5640229#1 5640229#2 5640229#3 5640229#4 5640229#5 5640229#6 -4726410#5 -4726410#4 -4726410#3 -4726410#2 -4726410#1 -4726410#0 -611113418#1 -611113418#0 -222114077#7 -222114077#6 -222114077#4 -222114077#3 -222114077#2 -222114077#1 -222114077#0 -4729000#2 -4729000#1 -4729000#0 -511175442 4304991 614969456 25498146 25498147#0 25498147#1 25498147#2 173298393 720932058 173298390 28266064#0 28266063#0 511175444 625075005#1 597760605#1 625075010#1" >
        <stop busStop="-4393542161" duration="20" until="102.0"/> <!-- Am Platz -->
        <stop busStop="-333325794" duration="20" until="218.0"/> <!-- Am Platz -->
        <stop busStop="2310890299" duration="20" until="329.0"/> <!-- Pappelallee -->
        <stop busStop="333697509" duration="20" until="361.0"/> <!-- Pappelallee -->
        <stop busStop="-2310869837" duration="20" until="446.0"/> <!-- Dammwiese -->
        <stop busStop="-333697504" duration="20" until="477.0"/> <!-- Dammwiese -->
        <stop busStop="-333697507" duration="20" until="551.0"/> <!-- Am Berge -->
        <stop busStop="310417074" duration="20" until="674.0"/> <!-- Im Steinkampe -->
        <stop busStop="2313104483" duration="20" until="834.0"/> <!-- Lincolnsiedlung -->
    </route>