<configuration>
	<input>
		<net-file value="../Netzmodell2.net.xml"/>
		<route-files value="routes.rou.xml"/>
		<gui-settings-file value="settings.xml"/>
		<additional-files value="../additional.add.xml,additional3.xml"/>
	</input>
	<time>
		<begin value="53990"/>
		<end value="61000"/>
	</time>
</configuration>