<?xml version="1.0" encoding="UTF-8"?>

<!-- generated on 2025-04-28 13:54:51 by Eclipse SUMO netconvert Version v1_22_0+1717-02fa9803246
<netconvertConfiguration xmlns:xsi="http://www.w3.org/2001/XMLSchema-instance" xsi:noNamespaceSchemaLocation="http://sumo.dlr.de/xsd/netconvertConfiguration.xsd">

    <input>
        <node-files value="data/input_nodes.nod.xml"/>
        <edge-files value="data/input_edges.edg.xml"/>
        <connection-files value="data/input_connections.con.xml"/>
    </input>

    <output>
        <output-file value="data/acosta_buslanes.net.xml"/>
    </output>

    <processing>
        <roundabouts.guess value="true"/>
    </processing>

    <junctions>
        <check-lane-foes.all value="true"/>
    </junctions>

    <report>
        <verbose value="x"/>
    </report>

</netconvertConfiguration>
-->

<net version="1.20" junctionCornerDetail="5" limitTurnSpeed="5.50" checkLaneFoesAll="1" xmlns:xsi="http://www.w3.org/2001/XMLSchema-instance" xsi:noNamespaceSchemaLocation="http://sumo.dlr.de/xsd/net_file.xsd">

    <location netOffset="-683542.41,-4928877.56" convBoundary="0.00,0.00,1817.58,1350.19" origBoundary="-346.830000,0.000000,1817.580000,2148.550000" projParameter="+proj=utm +zone=32 +ellps=WGS84 +datum=WGS84 +units=m +no_defs"/>

    <edge id=":0_0" function="internal">
        <lane id=":0_0_0" index="0" speed="13.89" length="10.58" shape="1406.95,813.06 1410.03,812.58 1412.11,811.70 1414.18,811.04 1417.21,811.17"/>
        <lane id=":0_0_1" index="1" speed="13.89" length="12.01" shape="1407.02,816.26 1410.55,815.81 1412.95,815.03 1415.34,814.48 1418.81,814.74"/>
    </edge>
    <edge id=":0_2" function="internal">
        <lane id=":0_2_0" index="0" speed="13.89" length="11.96" shape="1407.02,816.26 1410.68,816.34 1413.16,816.79 1415.60,817.59 1419.12,818.71"/>
        <lane id=":0_2_1" index="1" speed="13.89" length="11.96" shape="1407.10,819.46 1410.47,819.55 1412.75,819.98 1414.99,820.74 1418.24,821.79"/>
    </edge>
    <edge id=":1_0" function="internal">
        <lane id=":1_0_0" index="0" speed="13.89" length="13.15" shape="1503.80,840.88 1501.02,853.66"/>
        <lane id=":1_0_1" index="1" speed="13.89" length="13.15" shape="1500.71,840.08 1497.91,852.93"/>
        <lane id=":1_0_2" index="2" speed="13.89" length="13.15" shape="1497.61,839.28 1494.79,852.21"/>
    </edge>
    <edge id=":1_3" function="internal">
        <lane id=":1_3_0" index="0" speed="8.73" length="14.82" shape="1492.81,842.85 1496.99,845.08 1499.75,847.63 1501.09,850.48 1501.02,853.66"/>
        <lane id=":1_3_1" index="1" speed="7.38" length="10.33" shape="1491.56,845.80 1494.69,847.40 1496.79,849.13 1497.87,850.97 1497.91,852.93"/>
    </edge>
    <edge id=":10_0" function="internal">
        <lane id=":10_0_0" index="0" speed="13.89" length="8.53" shape="612.15,933.15 610.72,931.08 609.10,930.09 607.49,929.10 606.08,927.02"/>
        <lane id=":10_0_1" index="1" speed="13.89" length="8.53" shape="612.15,933.15 609.03,925.79"/>
        <lane id=":10_0_2" index="2" speed="13.89" length="8.53" shape="612.15,933.15 611.64,930.70 612.05,928.86 612.47,927.02 611.99,924.56"/>
    </edge>
    <edge id=":11_0" function="internal">
        <lane id=":11_0_0" index="0" speed="13.89" length="17.36" shape="300.50,164.13 302.07,167.36 303.94,170.56 306.09,174.39 308.48,179.51"/>
        <lane id=":11_0_1" index="1" speed="13.89" length="17.36" shape="300.50,164.13 301.61,167.55 302.46,171.17 303.59,175.42 305.52,180.75"/>
    </edge>
    <edge id=":114-end_0" function="internal">
        <lane id=":114-end_0_0" index="0" allow="bus" speed="3.65" length="4.67" shape="781.36,1351.67 779.95,1351.39 779.27,1350.80 779.34,1349.91 780.14,1348.71"/>
    </edge>
    <edge id=":12_0" function="internal">
        <lane id=":12_0_0" index="0" speed="10.05" length="16.00" shape="323.00,238.33 320.95,234.92 318.12,232.49 314.51,231.04 310.13,230.57"/>
    </edge>
    <edge id=":12_1" function="internal">
        <lane id=":12_1_0" index="0" speed="13.89" length="22.13" shape="323.00,238.33 320.60,231.79 319.01,226.04 317.79,221.14 316.50,217.19"/>
    </edge>
    <edge id=":12_2" function="internal">
        <lane id=":12_2_0" index="0" speed="7.40" length="4.92" shape="325.94,237.07 324.62,232.34"/>
    </edge>
    <edge id=":12_9" function="internal">
        <lane id=":12_9_0" index="0" speed="7.40" length="12.00" shape="324.62,232.34 324.57,232.16 325.36,228.89 328.31,227.27 333.41,227.30"/>
    </edge>
    <edge id=":12_3" function="internal">
        <lane id=":12_3_0" index="0" speed="5.65" length="9.26" shape="332.97,230.47 330.18,230.45 328.57,231.34 328.14,233.13 328.89,235.82"/>
    </edge>
    <edge id=":12_4" function="internal">
        <lane id=":12_4_0" index="0" speed="13.89" length="22.85" shape="332.97,230.47 328.01,230.19 321.57,230.26 315.11,230.45 310.13,230.57"/>
    </edge>
    <edge id=":12_5" function="internal">
        <lane id=":12_5_0" index="0" speed="12.74" length="22.18" shape="332.97,230.47 327.62,229.04 323.09,226.36 319.38,222.41 316.50,217.19"/>
    </edge>
    <edge id=":12_6" function="internal">
        <lane id=":12_6_0" index="0" speed="11.20" length="17.09" shape="323.04,214.43 325.59,219.78 328.17,223.72 330.77,226.22 333.41,227.30"/>
    </edge>
    <edge id=":12_7" function="internal">
        <lane id=":12_7_0" index="0" speed="13.89" length="21.98" shape="320.09,215.67 328.89,235.82"/>
    </edge>
    <edge id=":12_8" function="internal">
        <lane id=":12_8_0" index="0" speed="8.88" length="8.96" shape="320.09,215.67 321.79,222.16 321.27,224.36"/>
    </edge>
    <edge id=":12_10" function="internal">
        <lane id=":12_10_0" index="0" speed="8.88" length="14.06" shape="321.27,224.36 320.70,226.81 316.81,229.61 310.13,230.57"/>
    </edge>
    <edge id=":13_0" function="internal">
        <lane id=":13_0_0" index="0" speed="5.84" length="9.13" shape="437.69,244.82 435.03,244.84 433.35,245.74 432.67,247.51 432.97,250.16"/>
    </edge>
    <edge id=":13_1" function="internal">
        <lane id=":13_1_0" index="0" speed="13.89" length="14.27" shape="437.69,244.82 423.55,242.92"/>
    </edge>
    <edge id=":13_2" function="internal">
        <lane id=":13_2_0" index="0" speed="9.78" length="3.25" shape="437.69,244.82 434.78,243.86 434.64,243.74"/>
    </edge>
    <edge id=":13_4" function="internal">
        <lane id=":13_4_0" index="0" speed="9.78" length="11.38" shape="434.64,243.74 432.28,241.81 430.20,238.66 428.53,234.42"/>
    </edge>
    <edge id=":13_3" function="internal">
        <lane id=":13_3_0" index="0" speed="13.89" length="14.25" shape="423.98,239.75 438.11,241.64"/>
    </edge>
    <edge id=":133-begin_0" function="internal">
        <lane id=":133-begin_0_0" index="0" speed="3.65" length="4.67" shape="1759.04,528.77 1760.40,529.24 1760.99,529.92 1760.80,530.79 1759.84,531.87"/>
    </edge>
    <edge id=":135-begin_0" function="internal">
        <lane id=":135-begin_0_0" index="0" speed="3.65" length="4.67" shape="929.35,1098.12 929.09,1099.54 928.51,1100.22 927.61,1100.17 926.41,1099.38"/>
    </edge>
    <edge id=":137-begin_0" function="internal">
        <lane id=":137-begin_0_0" index="0" speed="3.65" length="4.67" shape="457.42,1074.92 456.00,1074.64 455.33,1074.05 455.40,1073.16 456.20,1071.96"/>
    </edge>
    <edge id=":15_0" function="internal">
        <lane id=":15_0_0" index="0" speed="8.27" length="14.82" shape="806.34,820.46 804.50,817.98 801.70,816.79 797.94,816.90 793.22,818.31"/>
        <lane id=":15_0_1" index="1" speed="8.86" length="17.18" shape="806.34,820.46 803.95,816.69 800.77,814.58 796.80,814.13 792.04,815.33"/>
    </edge>
    <edge id=":15_2" function="internal">
        <lane id=":15_2_0" index="0" speed="10.16" length="35.53" shape="809.28,819.18 808.31,810.54 813.19,805.41 821.97,803.62 832.67,805.00"/>
    </edge>
    <edge id=":15_3" function="internal">
        <lane id=":15_3_0" index="0" speed="13.89" length="34.59" shape="801.49,788.67 803.69,791.34 809.66,794.42 819.41,797.89 832.93,801.76"/>
    </edge>
    <edge id=":15_4" function="internal">
        <lane id=":15_4_0" index="0" speed="12.76" length="30.44" shape="801.49,788.67 801.92,798.54 800.49,806.26 797.20,811.86 792.04,815.33"/>
    </edge>
    <edge id=":15_5" function="internal">
        <lane id=":15_5_0" index="0" speed="13.89" length="44.24" shape="788.59,806.58 798.07,803.89 810.61,801.81 823.23,800.91 832.93,801.76"/>
        <lane id=":15_5_1" index="1" speed="13.89" length="44.24" shape="789.76,809.55 799.02,806.91 811.07,804.92 823.19,804.11 832.67,805.00"/>
    </edge>
    <edge id=":16_0" function="internal">
        <lane id=":16_0_0" index="0" speed="13.89" length="8.59" shape="665.67,854.73 663.24,855.56 661.84,856.94 660.43,858.28 658.00,859.01"/>
        <lane id=":16_0_1" index="1" speed="13.89" length="8.59" shape="665.32,851.55 662.93,852.37 661.55,853.75 660.17,855.09 657.77,855.82"/>
        <lane id=":16_0_2" index="2" speed="13.89" length="8.59" shape="665.32,851.55 657.55,852.63"/>
    </edge>
    <edge id=":17_0" function="internal">
        <lane id=":17_0_0" index="0" speed="13.89" length="3.49" shape="818.35,847.59 816.78,844.46"/>
        <lane id=":17_0_1" index="1" speed="13.89" length="3.49" shape="821.27,846.29 819.72,843.18"/>
    </edge>
    <edge id=":18_0" function="internal">
        <lane id=":18_0_0" index="0" speed="10.28" length="14.78" shape="469.94,388.44 467.79,384.21 465.44,381.10 462.88,379.11 460.11,378.25"/>
    </edge>
    <edge id=":18_1" function="internal">
        <lane id=":18_1_0" index="0" speed="7.12" length="15.25" shape="469.94,388.44 467.98,382.82 467.61,378.91 468.83,376.71 471.64,376.21"/>
    </edge>
    <edge id=":18_2" function="internal">
        <lane id=":18_2_0" index="0" speed="13.89" length="11.27" shape="471.32,379.40 460.11,378.25"/>
    </edge>
    <edge id=":18_3" function="internal">
        <lane id=":18_3_0" index="0" speed="7.84" length="9.91" shape="464.23,370.67 465.18,372.86 466.72,374.52 468.88,375.64 471.64,376.21"/>
    </edge>
    <edge id=":18_4" function="internal">
        <lane id=":18_4_0" index="0" speed="6.32" length="10.77" shape="464.23,370.67 464.78,374.23 464.27,376.68 462.72,378.02 460.11,378.25"/>
    </edge>
    <edge id=":18_5" function="internal">
        <lane id=":18_5_0" index="0" speed="13.89" length="11.25" shape="460.45,375.07 471.64,376.21"/>
    </edge>
    <edge id=":19_0" function="internal">
        <lane id=":19_0_0" index="0" speed="13.89" length="15.03" shape="381.83,379.04 380.63,375.90 379.77,372.92 378.75,369.54 377.09,365.16"/>
        <lane id=":19_0_1" index="1" speed="13.89" length="15.03" shape="381.83,379.04 381.10,375.74 381.28,372.39 381.28,368.59 380.03,363.91"/>
    </edge>
    <edge id=":19_2" function="internal">
        <lane id=":19_2_0" index="0" speed="8.06" length="10.16" shape="381.83,379.04 380.29,373.56 381.41,369.87 381.96,369.60"/>
    </edge>
    <edge id=":19_7" function="internal">
        <lane id=":19_7_0" index="0" speed="8.06" length="10.06" shape="381.96,369.60 385.19,367.99 391.64,367.90"/>
    </edge>
    <edge id=":19_3" function="internal">
        <lane id=":19_3_0" index="0" speed="5.67" length="9.24" shape="391.31,371.08 388.54,371.16 386.95,372.10 386.55,373.90 387.35,376.56"/>
    </edge>
    <edge id=":19_4" function="internal">
        <lane id=":19_4_0" index="0" speed="10.67" length="15.97" shape="391.31,371.08 385.83,370.23 381.63,368.96 378.72,367.27 377.09,365.16"/>
    </edge>
    <edge id=":19_5" function="internal">
        <lane id=":19_5_0" index="0" speed="8.79" length="10.64" shape="382.97,362.65 384.24,364.68 386.11,366.24 388.58,367.31 391.64,367.90"/>
    </edge>
    <edge id=":19_6" function="internal">
        <lane id=":19_6_0" index="0" speed="13.89" length="14.60" shape="382.97,362.65 384.20,366.12 385.13,369.62 386.08,373.11 387.35,376.56"/>
    </edge>
    <edge id=":1b_0" function="internal">
        <lane id=":1b_0_0" index="0" speed="13.89" length="16.97" shape="1477.17,835.41 1481.95,837.09 1485.03,838.72 1488.05,840.54 1492.63,842.77"/>
        <lane id=":1b_0_1" index="1" speed="13.89" length="16.97" shape="1476.29,838.49 1480.96,840.13 1483.96,841.74 1486.90,843.53 1491.38,845.72"/>
    </edge>
    <edge id=":1b_2" function="internal">
        <lane id=":1b_2_0" index="0" speed="13.89" length="16.11" shape="1479.70,848.32 1483.96,832.68"/>
        <lane id=":1b_2_1" index="1" speed="13.89" length="16.11" shape="1482.82,849.03 1487.06,833.48"/>
        <lane id=":1b_2_2" index="2" speed="13.89" length="16.11" shape="1485.94,849.73 1490.16,834.28"/>
    </edge>
    <edge id=":1c_0" function="internal">
        <lane id=":1c_0_0" index="0" speed="6.35" length="9.04" shape="1508.99,820.34 1508.77,822.84 1509.42,824.74 1510.94,826.07 1513.33,826.81"/>
    </edge>
    <edge id=":1c_1" function="internal">
        <lane id=":1c_1_0" index="0" speed="13.89" length="12.96" shape="1508.99,820.34 1505.85,832.99"/>
        <lane id=":1c_1_1" index="1" speed="13.89" length="12.96" shape="1505.87,819.61 1502.75,832.18"/>
        <lane id=":1c_1_2" index="2" speed="13.89" length="12.96" shape="1502.76,818.88 1499.66,831.38"/>
    </edge>
    <edge id=":1c_4" function="internal">
        <lane id=":1c_4_0" index="0" speed="13.89" length="16.65" shape="1496.75,825.55 1500.75,825.60 1505.06,825.85 1509.36,826.27 1513.33,826.81"/>
    </edge>
    <edge id=":2_0" function="internal">
        <lane id=":2_0_0" index="0" speed="13.89" length="8.16" shape="1433.61,814.31 1435.99,814.50 1437.64,814.23 1439.30,813.94 1441.68,814.10"/>
        <lane id=":2_0_1" index="1" speed="13.89" length="8.16" shape="1433.01,817.45 1435.40,817.64 1437.07,817.37 1438.73,817.09 1441.13,817.25"/>
        <lane id=":2_0_2" index="2" speed="13.89" length="8.16" shape="1433.01,817.45 1435.31,818.14 1436.79,818.95 1438.27,819.75 1440.58,820.40"/>
    </edge>
    <edge id=":204c_0" function="internal">
        <lane id=":204c_0_0" index="0" speed="13.89" length="16.11" shape="1458.89,1037.40 1460.17,1041.77 1461.44,1044.63 1463.06,1047.35 1465.39,1051.30"/>
        <lane id=":204c_0_1" index="1" speed="13.89" length="16.11" shape="1458.89,1037.40 1459.74,1042.09 1460.02,1045.42 1460.66,1048.60 1462.60,1052.86"/>
        <lane id=":204c_0_2" index="2" speed="13.89" length="16.11" shape="1455.79,1038.18 1456.70,1043.11 1457.04,1046.60 1457.75,1049.94 1459.80,1054.42"/>
    </edge>
    <edge id=":204c_3" function="internal">
        <lane id=":204c_3_0" index="0" speed="12.46" length="18.22" shape="1455.79,1038.18 1456.73,1043.54 1456.71,1048.24 1455.71,1052.28 1453.73,1055.66"/>
        <lane id=":204c_3_1" index="1" speed="11.44" length="15.26" shape="1452.68,1038.97 1453.52,1043.57 1453.56,1047.55 1452.80,1050.91 1451.24,1053.65"/>
    </edge>
    <edge id=":20a_0" function="internal">
        <lane id=":20a_0_0" index="0" speed="7.11" length="7.16" shape="436.10,541.34 435.80,539.40 435.10,537.79 434.00,536.53 432.49,535.61"/>
    </edge>
    <edge id=":20a_1" function="internal">
        <lane id=":20a_1_0" index="0" speed="11.84" length="7.02" shape="436.10,541.34 436.05,539.00 436.27,537.38 436.89,535.86 438.06,533.83"/>
        <lane id=":20a_1_1" index="1" speed="10.39" length="7.02" shape="439.29,541.20 439.26,539.41 439.43,538.18 439.91,537.02 440.81,535.47"/>
    </edge>
    <edge id=":20b_0" function="internal">
        <lane id=":20b_0_0" index="0" speed="8.22" length="7.16" shape="437.97,525.58 440.14,526.27 442.03,526.56 443.62,526.48 444.91,526.00"/>
        <lane id=":20b_0_1" index="1" speed="9.62" length="9.99" shape="436.84,528.58 439.72,529.45 442.29,529.77 444.56,529.55 446.52,528.77"/>
    </edge>
    <edge id=":20b_2" function="internal">
        <lane id=":20b_2_0" index="0" speed="13.89" length="9.05" shape="438.45,533.19 439.92,530.66 441.04,528.95 442.49,527.57 444.91,526.00"/>
        <lane id=":20b_2_1" index="1" speed="13.76" length="9.05" shape="441.19,534.84 442.41,532.71 443.32,531.26 444.50,530.09 446.52,528.77"/>
    </edge>
    <edge id=":20c_0" function="internal">
        <lane id=":20c_0_0" index="0" speed="6.74" length="9.95" shape="445.72,525.54 447.64,523.94 448.50,521.97 448.31,519.64 447.06,516.94"/>
    </edge>
    <edge id=":20c_1" function="internal">
        <lane id=":20c_1_0" index="0" speed="13.89" length="8.07" shape="445.72,525.54 447.86,524.29 449.35,523.46 450.90,522.77 453.22,521.90"/>
        <lane id=":20c_1_1" index="1" speed="13.89" length="8.07" shape="447.33,528.31 449.32,527.14 450.71,526.37 452.15,525.72 454.31,524.91"/>
    </edge>
    <edge id=":21_0" function="internal">
        <lane id=":21_0_0" index="0" speed="13.89" length="8.13" shape="418.88,446.71 420.07,448.76 421.23,449.96 422.42,451.14 423.70,453.15"/>
        <lane id=":21_0_1" index="1" speed="13.89" length="8.13" shape="418.88,446.71 419.63,448.99 419.80,450.67 420.00,452.34 420.83,454.58"/>
    </edge>
    <edge id=":21m_0" function="internal">
        <lane id=":21m_0_0" index="0" speed="13.89" length="7.89" shape="436.94,500.47 435.71,498.48 434.89,497.09 434.17,495.66 433.24,493.52"/>
    </edge>
    <edge id=":21m_1" function="internal">
        <lane id=":21m_1_0" index="0" speed="7.40" length="7.19" shape="431.69,500.21 432.84,498.40 433.48,496.68 433.61,495.06 433.24,493.52"/>
    </edge>
    <edge id=":23_0" function="internal">
        <lane id=":23_0_0" index="0" speed="13.89" length="26.45" shape="530.12,735.96 526.67,729.00 522.55,723.65 517.77,719.90 512.33,717.75"/>
    </edge>
    <edge id=":23_1" function="internal">
        <lane id=":23_1_0" index="0" speed="13.89" length="32.69" shape="533.08,734.75 519.38,705.07"/>
    </edge>
    <edge id=":23_2" function="internal">
        <lane id=":23_2_0" index="0" speed="13.86" length="23.05" shape="524.09,703.08 527.39,709.69 530.95,714.70 534.75,718.08 538.81,719.86"/>
    </edge>
    <edge id=":23_3" function="internal">
        <lane id=":23_3_0" index="0" speed="13.89" length="32.79" shape="524.09,703.08 539.29,732.21"/>
        <lane id=":23_3_1" index="1" speed="13.89" length="32.79" shape="524.09,703.08 536.33,733.43"/>
    </edge>
    <edge id=":23_5" function="internal">
        <lane id=":23_5_0" index="0" speed="8.57" length="8.12" shape="524.09,703.08 525.42,709.76 524.97,711.00"/>
    </edge>
    <edge id=":23_6" function="internal">
        <lane id=":23_6_0" index="0" speed="8.57" length="16.24" shape="524.97,711.00 523.57,714.90 519.03,717.81 512.33,717.75"/>
    </edge>
    <edge id=":24_0" function="internal">
        <lane id=":24_0_0" index="0" speed="13.89" length="12.60" shape="690.38,59.29 686.34,47.35"/>
    </edge>
    <edge id=":24_1" function="internal">
        <lane id=":24_1_0" index="0" speed="6.49" length="14.85" shape="690.38,59.29 690.01,56.34 691.63,55.31 695.23,56.19 700.81,59.00"/>
    </edge>
    <edge id=":25_0" function="internal">
        <lane id=":25_0_0" index="0" speed="6.41" length="9.04" shape="639.05,92.55 641.36,91.62 642.78,90.17 643.30,88.21 642.94,85.75"/>
    </edge>
    <edge id=":25_1" function="internal">
        <lane id=":25_1_0" index="0" speed="6.82" length="9.22" shape="639.05,92.55 641.58,92.28 643.64,92.81 645.25,94.15 646.41,96.31"/>
    </edge>
    <edge id=":26_0" function="internal">
        <lane id=":26_0_0" index="0" speed="13.89" length="18.88" shape="1607.68,571.23 1604.40,573.08 1601.18,576.09 1597.08,579.24 1591.17,581.52"/>
        <lane id=":26_0_1" index="1" allow="bus" speed="13.89" length="18.88" shape="1607.68,571.23 1604.23,572.61 1600.69,574.56 1596.35,576.63 1590.51,578.39"/>
        <lane id=":26_0_2" index="2" speed="13.89" length="18.88" shape="1607.68,571.23 1589.84,575.26"/>
    </edge>
    <edge id=":26_3" function="internal">
        <lane id=":26_3_0" index="0" speed="13.89" length="18.15" shape="1589.17,572.13 1606.88,568.14"/>
    </edge>
    <edge id=":26_4" function="internal">
        <lane id=":26_4_0" index="0" speed="5.77" length="9.16" shape="1596.10,586.51 1596.33,583.82 1595.58,582.09 1593.86,581.33 1591.17,581.52"/>
        <lane id=":26_4_1" index="1" allow="bus" speed="6.68" length="12.74" shape="1596.10,586.51 1596.58,582.33 1595.80,579.59 1593.78,578.28 1590.51,578.39"/>
    </edge>
    <edge id=":26_6" function="internal">
        <lane id=":26_6_0" index="0" speed="12.26" length="22.16" shape="1596.10,586.51 1598.17,579.15 1600.66,573.64 1603.56,569.97 1606.88,568.14"/>
    </edge>
    <edge id=":26_7" function="internal">
        <lane id=":26_7_0" index="0" speed="3.77" length="5.15" shape="1596.10,586.51 1597.25,585.41 1598.21,585.17 1598.97,585.79 1599.55,587.28"/>
    </edge>
    <edge id=":27_0" function="internal">
        <lane id=":27_0_0" index="0" speed="11.36" length="19.02" shape="1580.01,583.90 1575.43,585.49 1571.76,588.13 1569.00,591.80 1567.15,596.51"/>
    </edge>
    <edge id=":27_1" function="internal">
        <lane id=":27_1_0" index="0" allow="bus" speed="13.89" length="37.24" shape="1579.38,580.76 1568.16,581.19 1557.41,579.15 1548.48,576.68 1542.74,575.82"/>
    </edge>
    <edge id=":27_2" function="internal">
        <lane id=":27_2_0" index="0" speed="9.75" length="14.79" shape="1578.75,577.63 1571.74,577.00 1564.91,573.33"/>
    </edge>
    <edge id=":27_14" function="internal">
        <lane id=":27_14_0" index="0" speed="9.75" length="14.24" shape="1564.91,573.33 1564.73,573.24 1559.71,567.56 1558.63,561.19"/>
    </edge>
    <edge id=":27_3" function="internal">
        <lane id=":27_3_0" index="0" speed="6.63" length="12.54" shape="1574.24,565.05 1573.53,569.61 1573.94,572.68 1575.46,574.26 1578.09,574.36"/>
    </edge>
    <edge id=":27_4" function="internal">
        <lane id=":27_4_0" index="0" speed="13.89" length="32.19" shape="1574.24,565.05 1567.15,596.51"/>
        <lane id=":27_4_1" index="1" speed="13.89" length="32.19" shape="1571.13,564.28 1564.06,595.69"/>
        <lane id=":27_4_2" index="2" speed="13.89" length="32.19" shape="1568.02,563.51 1560.97,594.87"/>
    </edge>
    <edge id=":27_7" function="internal">
        <lane id=":27_7_0" index="0" allow="bus" speed="13.47" length="16.37" shape="1568.02,563.51 1565.70,567.43 1560.71,570.79 1555.26,572.78"/>
    </edge>
    <edge id=":27_15" function="internal">
        <lane id=":27_15_0" index="0" allow="bus" speed="13.47" length="12.90" shape="1555.26,572.78 1553.05,573.58 1542.74,575.82"/>
    </edge>
    <edge id=":27_8" function="internal">
        <lane id=":27_8_0" index="0" speed="9.37" length="13.72" shape="1541.13,566.21 1545.61,565.18 1548.99,563.75 1551.26,561.90 1552.42,559.65"/>
    </edge>
    <edge id=":27_9" function="internal">
        <lane id=":27_9_0" index="0" speed="13.89" length="36.97" shape="1541.66,569.36 1552.91,569.26 1563.59,571.33 1572.41,573.66 1578.09,574.36"/>
    </edge>
    <edge id=":27_10" function="internal">
        <lane id=":27_10_0" index="0" speed="11.07" length="10.96" shape="1542.19,572.52 1550.11,574.46 1552.38,576.10"/>
    </edge>
    <edge id=":27_16" function="internal">
        <lane id=":27_16_0" index="0" speed="11.07" length="26.24" shape="1552.38,576.10 1558.82,580.76 1565.45,588.94 1567.15,596.51"/>
    </edge>
    <edge id=":27_11" function="internal">
        <lane id=":27_11_0" index="0" speed="13.89" length="31.86" shape="1545.01,590.62 1552.42,559.65"/>
        <lane id=":27_11_1" index="1" speed="13.89" length="31.86" shape="1548.11,591.44 1555.53,560.42"/>
    </edge>
    <edge id=":27_13" function="internal">
        <lane id=":27_13_0" index="0" speed="13.89" length="16.31" shape="1551.20,592.26 1554.16,586.21 1559.62,581.21 1561.56,580.25"/>
    </edge>
    <edge id=":27_17" function="internal">
        <lane id=":27_17_0" index="0" speed="13.89" length="17.62" shape="1561.56,580.25 1567.60,577.26 1578.09,574.36"/>
    </edge>
    <edge id=":28_0" function="internal">
        <lane id=":28_0_0" index="0" speed="13.89" length="11.26" shape="703.68,239.02 692.93,242.38"/>
    </edge>
    <edge id=":28_1" function="internal">
        <lane id=":28_1_0" index="0" speed="6.55" length="9.02" shape="695.54,232.45 696.71,234.65 698.28,235.98 700.26,236.42 702.66,235.99"/>
    </edge>
    <edge id=":28_2" function="internal">
        <lane id=":28_2_0" index="0" speed="7.16" length="11.72" shape="695.54,232.45 696.51,236.18 696.39,239.08 695.20,241.15 692.93,242.38"/>
    </edge>
    <edge id=":28_3" function="internal">
        <lane id=":28_3_0" index="0" speed="13.89" length="11.11" shape="692.05,239.30 702.66,235.99"/>
    </edge>
    <edge id=":29_0" function="internal">
        <lane id=":29_0_0" index="0" speed="13.89" length="8.29" shape="1528.44,654.97 1530.46,646.89"/>
        <lane id=":29_0_1" index="1" speed="13.89" length="8.29" shape="1531.54,655.73 1533.56,647.69"/>
        <lane id=":29_0_2" index="2" speed="13.89" length="8.29" shape="1534.65,656.50 1536.66,648.49"/>
    </edge>
    <edge id=":3_0" function="internal">
        <lane id=":3_0_0" index="0" speed="6.69" length="9.22" shape="1480.77,820.98 1483.41,821.11 1485.46,820.46 1486.93,819.03 1487.82,816.82"/>
        <lane id=":3_0_1" index="1" speed="8.15" length="14.20" shape="1480.21,824.13 1484.20,824.30 1487.32,823.26 1489.57,821.01 1490.94,817.54"/>
        <lane id=":3_0_2" index="2" speed="9.39" length="19.17" shape="1479.66,827.28 1485.00,827.50 1489.18,826.07 1492.20,822.98 1494.06,818.25"/>
    </edge>
    <edge id=":3_3" function="internal">
        <lane id=":3_3_0" index="0" speed="13.89" length="17.11" shape="1479.66,827.28 1485.12,827.65 1489.36,827.00 1492.98,826.07 1496.55,825.55"/>
    </edge>
    <edge id=":3_4" function="internal">
        <lane id=":3_4_0" index="0" speed="13.89" length="16.21" shape="1484.01,832.49 1487.82,816.82"/>
        <lane id=":3_4_1" index="1" speed="13.89" length="16.21" shape="1487.11,833.29 1490.94,817.54"/>
        <lane id=":3_4_2" index="2" speed="13.89" length="16.21" shape="1490.21,834.09 1494.06,818.25"/>
    </edge>
    <edge id=":30_0" function="internal">
        <lane id=":30_0_0" index="0" speed="13.89" length="11.44" shape="576.30,261.17 573.10,261.30 570.57,261.54 568.05,261.67 564.88,261.44"/>
    </edge>
    <edge id=":30_1" function="internal">
        <lane id=":30_1_0" index="0" speed="6.51" length="8.76" shape="570.74,252.58 571.16,254.93 572.23,256.62 573.95,257.63 576.31,257.97"/>
    </edge>
    <edge id=":30_2" function="internal">
        <lane id=":30_2_0" index="0" speed="7.11" length="8.90" shape="570.74,252.58 570.51,256.76 569.45,259.63 568.18,260.69"/>
    </edge>
    <edge id=":30_6" function="internal">
        <lane id=":30_6_0" index="0" speed="7.11" length="3.49" shape="568.18,260.69 567.58,261.19 564.88,261.44"/>
    </edge>
    <edge id=":30_3" function="internal">
        <lane id=":30_3_0" index="0" speed="13.89" length="11.04" shape="565.30,258.27 568.41,258.49 570.79,258.36 573.18,258.10 576.31,257.97"/>
    </edge>
    <edge id=":30_4" function="internal">
        <lane id=":30_4_0" index="0" speed="6.67" length="8.98" shape="570.14,267.47 569.92,265.10 568.97,263.31 567.29,262.09 564.88,261.44"/>
    </edge>
    <edge id=":30_5" function="internal">
        <lane id=":30_5_0" index="0" speed="7.70" length="9.38" shape="570.14,267.47 570.71,263.31 571.93,260.34 573.36,258.98"/>
    </edge>
    <edge id=":30_7" function="internal">
        <lane id=":30_7_0" index="0" speed="7.70" length="3.19" shape="573.36,258.98 573.80,258.56 576.31,257.97"/>
    </edge>
    <edge id=":31_0" function="internal">
        <lane id=":31_0_0" index="0" speed="7.62" length="12.70" shape="753.33,222.37 751.17,223.69 750.05,225.98 749.95,229.25 750.88,233.50"/>
    </edge>
    <edge id=":31_1" function="internal">
        <lane id=":31_1_0" index="0" speed="13.89" length="11.40" shape="753.33,222.37 742.49,225.89"/>
    </edge>
    <edge id=":31_2" function="internal">
        <lane id=":31_2_0" index="0" speed="6.49" length="9.03" shape="741.46,222.86 743.68,221.74 744.99,220.18 745.41,218.19 744.93,215.76"/>
    </edge>
    <edge id=":31_3" function="internal">
        <lane id=":31_3_0" index="0" speed="13.89" length="11.47" shape="741.46,222.86 752.37,219.31"/>
    </edge>
    <edge id=":31_4" function="internal">
        <lane id=":31_4_0" index="0" speed="8.29" length="2.44" shape="741.46,222.86 743.90,222.82"/>
    </edge>
    <edge id=":31_5" function="internal">
        <lane id=":31_5_0" index="0" speed="8.29" length="13.22" shape="743.90,222.82 744.15,222.81 746.61,224.57 748.86,228.13 750.88,233.50"/>
    </edge>
    <edge id=":32_0" function="internal">
        <lane id=":32_0_0" index="0" speed="6.55" length="9.05" shape="795.95,214.91 794.85,212.68 793.30,211.33 791.31,210.86 788.87,211.25"/>
    </edge>
    <edge id=":32_1" function="internal">
        <lane id=":32_1_0" index="0" speed="7.41" length="12.04" shape="795.95,214.91 795.10,211.13 795.31,208.17 796.58,206.01 798.91,204.66"/>
    </edge>
    <edge id=":32_2" function="internal">
        <lane id=":32_2_0" index="0" speed="13.89" length="11.60" shape="799.92,207.70 788.87,211.25"/>
    </edge>
    <edge id=":32_3" function="internal">
        <lane id=":32_3_0" index="0" speed="8.10" length="14.90" shape="790.00,194.50 791.89,199.61 794.00,203.01 796.35,204.69 798.91,204.66"/>
    </edge>
    <edge id=":32_4" function="internal">
        <lane id=":32_4_0" index="0" speed="9.02" length="18.13" shape="790.00,194.50 791.60,201.17 791.95,206.19 791.04,209.55 788.87,211.25"/>
    </edge>
    <edge id=":32_5" function="internal">
        <lane id=":32_5_0" index="0" speed="13.89" length="11.55" shape="787.92,208.20 798.91,204.66"/>
    </edge>
    <edge id=":33_0" function="internal">
        <lane id=":33_0_0" index="0" speed="13.89" length="10.23" shape="1605.23,438.73 1602.47,448.58"/>
        <lane id=":33_0_1" index="1" speed="13.89" length="10.23" shape="1602.13,437.94 1599.37,447.79"/>