<?xml version="1.0" encoding="UTF-8"?>

<!-- generated on 2025-04-28 13:54:54 by Eclipse SUMO netconvert Version v1_22_0+1717-02fa9803246
<netconvertConfiguration xmlns:xsi="http://www.w3.org/2001/XMLSchema-instance" xsi:noNamespaceSchemaLocation="http://sumo.dlr.de/xsd/netconvertConfiguration.xsd">

    <input>
        <node-files value="data/input_nodes.nod.xml,data/input_nodes2.nod.xml"/>
        <edge-files value="data/input_edges.edg.xml,data/input_edges2.edg.xml"/>
        <connection-files value="data/input_connections.con.xml,data/input_connections2.con.xml"/>
    </input>

    <output>
        <output-file value="data/joined_buslanes.net.xml"/>
    </output>

    <tls_building>
        <tls.ignore-internal-junction-jam value="true"/>
    </tls_building>

    <junctions>
        <check-lane-foes.all value="true"/>
    </junctions>

    <report>
        <verbose value="true"/>
    </report>

</netconvertConfiguration>
-->

<net version="1.20" junctionCornerDetail="5" limitTurnSpeed="5.50" checkLaneFoesAll="1" tlsIgnoreInternalJunctionJam="1" xmlns:xsi="http://www.w3.org/2001/XMLSchema-instance" xsi:noNamespaceSchemaLocation="http://sumo.dlr.de/xsd/net_file.xsd">

    <location netOffset="-683195.58,-4928877.56" convBoundary="0.00,0.00,2164.41,1916.15" origBoundary="-346.830000,0.000000,1817.580000,2148.550000" projParameter="+proj=utm +zone=32 +ellps=WGS84 +datum=WGS84 +units=m +no_defs"/>

    <edge id=":a0_0" function="internal">
        <lane id=":a0_0_0" index="0" speed="13.89" length="10.58" shape="1753.78,813.06 1756.86,812.58 1758.94,811.70 1761.01,811.04 1764.04,811.17"/>
        <lane id=":a0_0_1" index="1" speed="13.89" length="12.01" shape="1753.85,816.26 1757.38,815.81 1759.78,815.03 1762.17,814.48 1765.64,814.74"/>
    </edge>
    <edge id=":a0_2" function="internal">
        <lane id=":a0_2_0" index="0" speed="13.89" length="11.96" shape="1753.85,816.26 1757.51,816.34 1759.99,816.79 1762.43,817.59 1765.95,818.71"/>
        <lane id=":a0_2_1" index="1" speed="13.89" length="11.96" shape="1753.93,819.46 1757.30,819.55 1759.58,819.98 1761.82,820.74 1765.07,821.79"/>
    </edge>
    <edge id=":a1_0" function="internal">
        <lane id=":a1_0_0" index="0" speed="13.89" length="13.15" shape="1850.63,840.88 1847.85,853.66"/>
        <lane id=":a1_0_1" index="1" speed="13.89" length="13.15" shape="1847.54,840.08 1844.74,852.93"/>
        <lane id=":a1_0_2" index="2" speed="13.89" length="13.15" shape="1844.44,839.28 1841.62,852.21"/>
    </edge>
    <edge id=":a1_3" function="internal">
        <lane id=":a1_3_0" index="0" speed="8.73" length="14.82" shape="1839.64,842.85 1843.82,845.08 1846.58,847.63 1847.92,850.48 1847.85,853.66"/>
        <lane id=":a1_3_1" index="1" speed="7.38" length="10.33" shape="1838.39,845.80 1841.52,847.40 1843.62,849.13 1844.70,850.97 1844.74,852.93"/>
    </edge>
    <edge id=":a11_0" function="internal">
        <lane id=":a11_0_0" index="0" speed="13.89" length="17.36" shape="647.33,164.13 648.90,167.36 650.77,170.56 652.92,174.39 655.31,179.51"/>
        <lane id=":a11_0_1" index="1" speed="13.89" length="17.36" shape="647.33,164.13 648.44,167.55 649.29,171.17 650.42,175.42 652.35,180.75"/>
    </edge>
    <edge id=":a12_0" function="internal">
        <lane id=":a12_0_0" index="0" speed="10.05" length="16.00" shape="669.83,238.33 667.78,234.92 664.95,232.49 661.34,231.04 656.96,230.57"/>
    </edge>
    <edge id=":a12_1" function="internal">
        <lane id=":a12_1_0" index="0" speed="13.89" length="22.13" shape="669.83,238.33 667.43,231.79 665.84,226.04 664.62,221.14 663.33,217.19"/>
    </edge>
    <edge id=":a12_2" function="internal">
        <lane id=":a12_2_0" index="0" speed="7.40" length="4.92" shape="672.77,237.07 671.45,232.34"/>
    </edge>
    <edge id=":a12_9" function="internal">
        <lane id=":a12_9_0" index="0" speed="7.40" length="12.00" shape="671.45,232.34 671.40,232.16 672.19,228.89 675.14,227.27 680.24,227.30"/>
    </edge>
    <edge id=":a12_3" function="internal">
        <lane id=":a12_3_0" index="0" speed="5.65" length="9.26" shape="679.80,230.47 677.01,230.45 675.40,231.34 674.97,233.13 675.72,235.82"/>
    </edge>
    <edge id=":a12_4" function="internal">
        <lane id=":a12_4_0" index="0" speed="13.89" length="22.85" shape="679.80,230.47 674.84,230.19 668.40,230.26 661.94,230.45 656.96,230.57"/>
    </edge>
    <edge id=":a12_5" function="internal">
        <lane id=":a12_5_0" index="0" speed="12.74" length="22.18" shape="679.80,230.47 674.45,229.04 669.92,226.36 666.21,222.41 663.33,217.19"/>
    </edge>
    <edge id=":a12_6" function="internal">
        <lane id=":a12_6_0" index="0" speed="11.20" length="17.09" shape="669.87,214.43 672.42,219.78 675.00,223.72 677.60,226.22 680.24,227.30"/>
    </edge>
    <edge id=":a12_7" function="internal">
        <lane id=":a12_7_0" index="0" speed="13.89" length="21.98" shape="666.92,215.67 675.72,235.82"/>
    </edge>
    <edge id=":a12_8" function="internal">
        <lane id=":a12_8_0" index="0" speed="8.88" length="8.96" shape="666.92,215.67 668.62,222.16 668.10,224.36"/>
    </edge>
    <edge id=":a12_10" function="internal">
        <lane id=":a12_10_0" index="0" speed="8.88" length="14.06" shape="668.10,224.36 667.53,226.81 663.64,229.61 656.96,230.57"/>
    </edge>
    <edge id=":a13_0" function="internal">
        <lane id=":a13_0_0" index="0" speed="5.84" length="9.13" shape="784.52,244.82 781.86,244.84 780.18,245.74 779.50,247.51 779.80,250.16"/>
    </edge>
    <edge id=":a13_1" function="internal">
        <lane id=":a13_1_0" index="0" speed="13.89" length="14.27" shape="784.52,244.82 770.38,242.92"/>
    </edge>
    <edge id=":a13_2" function="internal">
        <lane id=":a13_2_0" index="0" speed="9.78" length="3.25" shape="784.52,244.82 781.61,243.86 781.47,243.74"/>
    </edge>
    <edge id=":a13_4" function="internal">
        <lane id=":a13_4_0" index="0" speed="9.78" length="11.38" shape="781.47,243.74 779.11,241.81 777.03,238.66 775.36,234.42"/>
    </edge>
    <edge id=":a13_3" function="internal">
        <lane id=":a13_3_0" index="0" speed="13.89" length="14.25" shape="770.81,239.75 784.94,241.64"/>
    </edge>
    <edge id=":a133-begin_0" function="internal">
        <lane id=":a133-begin_0_0" index="0" allow="bus" speed="3.65" length="4.67" shape="2105.87,528.77 2107.23,529.24 2107.82,529.92 2107.63,530.79 2106.67,531.87"/>
    </edge>
    <edge id=":a15_0" function="internal">
        <lane id=":a15_0_0" index="0" speed="8.27" length="14.82" shape="1153.17,820.46 1151.33,817.98 1148.53,816.79 1144.77,816.90 1140.05,818.31"/>
        <lane id=":a15_0_1" index="1" speed="8.86" length="17.18" shape="1153.17,820.46 1150.78,816.69 1147.60,814.58 1143.63,814.13 1138.87,815.33"/>
    </edge>
    <edge id=":a15_2" function="internal">
        <lane id=":a15_2_0" index="0" speed="10.16" length="35.53" shape="1156.11,819.18 1155.14,810.54 1160.02,805.41 1168.80,803.62 1179.50,805.00"/>
    </edge>
    <edge id=":a15_3" function="internal">
        <lane id=":a15_3_0" index="0" speed="13.89" length="34.59" shape="1148.32,788.67 1150.52,791.34 1156.49,794.42 1166.24,797.89 1179.76,801.76"/>
    </edge>
    <edge id=":a15_4" function="internal">
        <lane id=":a15_4_0" index="0" speed="12.76" length="30.44" shape="1148.32,788.67 1148.75,798.54 1147.32,806.26 1144.03,811.86 1138.87,815.33"/>
    </edge>
    <edge id=":a15_5" function="internal">
        <lane id=":a15_5_0" index="0" speed="13.89" length="44.24" shape="1135.42,806.58 1144.90,803.89 1157.44,801.81 1170.06,800.91 1179.76,801.76"/>
        <lane id=":a15_5_1" index="1" speed="13.89" length="44.24" shape="1136.59,809.55 1145.85,806.91 1157.90,804.92 1170.02,804.11 1179.50,805.00"/>
    </edge>
    <edge id=":a16_0" function="internal">
        <lane id=":a16_0_0" index="0" speed="13.89" length="8.59" shape="1012.50,854.73 1010.07,855.56 1008.67,856.94 1007.26,858.28 1004.83,859.01"/>
        <lane id=":a16_0_1" index="1" speed="13.89" length="8.59" shape="1012.15,851.55 1009.76,852.37 1008.38,853.75 1007.00,855.09 1004.60,855.82"/>
        <lane id=":a16_0_2" index="2" speed="13.89" length="8.59" shape="1012.15,851.55 1004.38,852.63"/>
    </edge>
    <edge id=":a17_0" function="internal">
        <lane id=":a17_0_0" index="0" speed="13.89" length="3.49" shape="1165.18,847.59 1163.61,844.46"/>
        <lane id=":a17_0_1" index="1" speed="13.89" length="3.49" shape="1168.10,846.29 1166.55,843.18"/>
    </edge>
    <edge id=":a18_0" function="internal">
        <lane id=":a18_0_0" index="0" speed="10.28" length="14.78" shape="816.77,388.44 814.62,384.21 812.27,381.10 809.71,379.11 806.94,378.25"/>
    </edge>
    <edge id=":a18_1" function="internal">
        <lane id=":a18_1_0" index="0" speed="7.12" length="15.25" shape="816.77,388.44 814.81,382.82 814.44,378.91 815.66,376.71 818.47,376.21"/>
    </edge>
    <edge id=":a18_2" function="internal">
        <lane id=":a18_2_0" index="0" speed="13.89" length="11.27" shape="818.15,379.40 806.94,378.25"/>
    </edge>
    <edge id=":a18_3" function="internal">
        <lane id=":a18_3_0" index="0" speed="7.84" length="9.91" shape="811.06,370.67 812.01,372.86 813.55,374.52 815.71,375.64 818.47,376.21"/>
    </edge>
    <edge id=":a18_4" function="internal">
        <lane id=":a18_4_0" index="0" speed="6.32" length="10.77" shape="811.06,370.67 811.61,374.23 811.10,376.68 809.55,378.02 806.94,378.25"/>
    </edge>
    <edge id=":a18_5" function="internal">
        <lane id=":a18_5_0" index="0" speed="13.89" length="11.25" shape="807.28,375.07 818.47,376.21"/>
    </edge>
    <edge id=":a19_0" function="internal">
        <lane id=":a19_0_0" index="0" speed="13.89" length="15.03" shape="728.66,379.04 727.46,375.90 726.60,372.92 725.58,369.54 723.92,365.16"/>
        <lane id=":a19_0_1" index="1" speed="13.89" length="15.03" shape="728.66,379.04 727.93,375.74 728.11,372.39 728.11,368.59 726.86,363.91"/>
    </edge>
    <edge id=":a19_2" function="internal">
        <lane id=":a19_2_0" index="0" speed="8.06" length="10.16" shape="728.66,379.04 727.12,373.56 728.24,369.87 728.79,369.60"/>
    </edge>
    <edge id=":a19_7" function="internal">
        <lane id=":a19_7_0" index="0" speed="8.06" length="10.06" shape="728.79,369.60 732.02,367.99 738.47,367.90"/>
    </edge>
    <edge id=":a19_3" function="internal">
        <lane id=":a19_3_0" index="0" speed="5.67" length="9.24" shape="738.14,371.08 735.37,371.16 733.78,372.10 733.38,373.90 734.18,376.56"/>
    </edge>
    <edge id=":a19_4" function="internal">
        <lane id=":a19_4_0" index="0" speed="10.67" length="15.97" shape="738.14,371.08 732.66,370.23 728.46,368.96 725.55,367.27 723.92,365.16"/>
    </edge>
    <edge id=":a19_5" function="internal">
        <lane id=":a19_5_0" index="0" speed="8.79" length="10.64" shape="729.80,362.65 731.07,364.68 732.94,366.24 735.41,367.31 738.47,367.90"/>
    </edge>
    <edge id=":a19_6" function="internal">
        <lane id=":a19_6_0" index="0" speed="13.89" length="14.60" shape="729.80,362.65 731.03,366.12 731.96,369.62 732.91,373.11 734.18,376.56"/>
    </edge>
    <edge id=":a1b_0" function="internal">
        <lane id=":a1b_0_0" index="0" speed="13.89" length="16.97" shape="1824.00,835.41 1828.78,837.09 1831.86,838.72 1834.88,840.54 1839.46,842.77"/>
        <lane id=":a1b_0_1" index="1" speed="13.89" length="16.97" shape="1823.12,838.49 1827.79,840.13 1830.79,841.74 1833.73,843.53 1838.21,845.72"/>
    </edge>
    <edge id=":a1b_2" function="internal">
        <lane id=":a1b_2_0" index="0" speed="13.89" length="16.11" shape="1826.53,848.32 1830.79,832.68"/>
        <lane id=":a1b_2_1" index="1" speed="13.89" length="16.11" shape="1829.65,849.03 1833.89,833.48"/>
        <lane id=":a1b_2_2" index="2" speed="13.89" length="16.11" shape="1832.77,849.73 1836.99,834.28"/>
    </edge>
    <edge id=":a1c_0" function="internal">
        <lane id=":a1c_0_0" index="0" speed="6.35" length="9.04" shape="1855.82,820.34 1855.60,822.84 1856.25,824.74 1857.77,826.07 1860.16,826.81"/>
    </edge>
    <edge id=":a1c_1" function="internal">
        <lane id=":a1c_1_0" index="0" speed="13.89" length="12.96" shape="1855.82,820.34 1852.68,832.99"/>
        <lane id=":a1c_1_1" index="1" speed="13.89" length="12.96" shape="1852.70,819.61 1849.58,832.18"/>
        <lane id=":a1c_1_2" index="2" speed="13.89" length="12.96" shape="1849.59,818.88 1846.49,831.38"/>
    </edge>
    <edge id=":a1c_4" function="internal">
        <lane id=":a1c_4_0" index="0" speed="13.89" length="16.65" shape="1843.58,825.55 1847.58,825.60 1851.89,825.85 1856.19,826.27 1860.16,826.81"/>
    </edge>
    <edge id=":a2_0" function="internal">
        <lane id=":a2_0_0" index="0" speed="13.89" length="8.16" shape="1780.44,814.31 1782.82,814.50 1784.47,814.23 1786.13,813.94 1788.51,814.10"/>
        <lane id=":a2_0_1" index="1" speed="13.89" length="8.16" shape="1779.84,817.45 1782.23,817.64 1783.90,817.37 1785.56,817.09 1787.96,817.25"/>
        <lane id=":a2_0_2" index="2" speed="13.89" length="8.16" shape="1779.84,817.45 1782.14,818.14 1783.62,818.95 1785.10,819.75 1787.41,820.40"/>
    </edge>
    <edge id=":a204c_0" function="internal">
        <lane id=":a204c_0_0" index="0" speed="13.89" length="16.11" shape="1805.72,1037.40 1807.00,1041.77 1808.27,1044.63 1809.89,1047.35 1812.22,1051.30"/>
        <lane id=":a204c_0_1" index="1" speed="13.89" length="16.11" shape="1805.72,1037.40 1806.57,1042.09 1806.85,1045.42 1807.49,1048.60 1809.43,1052.86"/>
        <lane id=":a204c_0_2" index="2" speed="13.89" length="16.11" shape="1802.62,1038.18 1803.53,1043.11 1803.87,1046.60 1804.58,1049.94 1806.63,1054.42"/>
    </edge>
    <edge id=":a204c_3" function="internal">
        <lane id=":a204c_3_0" index="0" speed="12.46" length="18.22" shape="1802.62,1038.18 1803.56,1043.54 1803.54,1048.24 1802.54,1052.28 1800.56,1055.66"/>
        <lane id=":a204c_3_1" index="1" speed="11.44" length="15.26" shape="1799.51,1038.97 1800.35,1043.57 1800.39,1047.55 1799.63,1050.91 1798.07,1053.65"/>
    </edge>
    <edge id=":a20a_0" function="internal">
        <lane id=":a20a_0_0" index="0" speed="7.11" length="7.16" shape="782.93,541.34 782.63,539.40 781.93,537.79 780.83,536.53 779.32,535.61"/>
    </edge>
    <edge id=":a20a_1" function="internal">
        <lane id=":a20a_1_0" index="0" speed="11.84" length="7.02" shape="782.93,541.34 782.88,539.00 783.10,537.38 783.72,535.86 784.89,533.83"/>
        <lane id=":a20a_1_1" index="1" speed="10.39" length="7.02" shape="786.12,541.20 786.09,539.41 786.26,538.18 786.74,537.02 787.64,535.47"/>
    </edge>
    <edge id=":a20b_0" function="internal">
        <lane id=":a20b_0_0" index="0" speed="8.22" length="7.16" shape="784.80,525.58 786.97,526.27 788.86,526.56 790.45,526.48 791.74,526.00"/>
        <lane id=":a20b_0_1" index="1" speed="9.62" length="9.99" shape="783.67,528.58 786.55,529.45 789.12,529.77 791.39,529.55 793.35,528.77"/>
    </edge>
    <edge id=":a20b_2" function="internal">
        <lane id=":a20b_2_0" index="0" speed="13.89" length="9.05" shape="785.28,533.19 786.75,530.66 787.87,528.95 789.32,527.57 791.74,526.00"/>
        <lane id=":a20b_2_1" index="1" speed="13.76" length="9.05" shape="788.02,534.84 789.24,532.71 790.15,531.26 791.33,530.09 793.35,528.77"/>
    </edge>
    <edge id=":a20c_0" function="internal">
        <lane id=":a20c_0_0" index="0" speed="6.74" length="9.95" shape="792.55,525.54 794.47,523.94 795.33,521.97 795.14,519.64 793.89,516.94"/>
    </edge>
    <edge id=":a20c_1" function="internal">
        <lane id=":a20c_1_0" index="0" speed="13.89" length="8.07" shape="792.55,525.54 794.69,524.29 796.18,523.46 797.73,522.77 800.05,521.90"/>
        <lane id=":a20c_1_1" index="1" speed="13.89" length="8.07" shape="794.16,528.31 796.15,527.14 797.54,526.37 798.98,525.72 801.14,524.91"/>
    </edge>
    <edge id=":a21_0" function="internal">
        <lane id=":a21_0_0" index="0" speed="13.89" length="8.13" shape="765.71,446.71 766.90,448.76 768.06,449.96 769.25,451.14 770.53,453.15"/>
        <lane id=":a21_0_1" index="1" speed="13.89" length="8.13" shape="765.71,446.71 766.46,448.99 766.63,450.67 766.83,452.34 767.66,454.58"/>
    </edge>
    <edge id=":a21m_0" function="internal">
        <lane id=":a21m_0_0" index="0" speed="13.89" length="7.89" shape="783.77,500.47 782.54,498.48 781.72,497.09 781.00,495.66 780.07,493.52"/>
    </edge>
    <edge id=":a21m_1" function="internal">
        <lane id=":a21m_1_0" index="0" speed="7.40" length="7.19" shape="778.52,500.21 779.67,498.40 780.31,496.68 780.44,495.06 780.07,493.52"/>
    </edge>
    <edge id=":a23_0" function="internal">
        <lane id=":a23_0_0" index="0" speed="13.89" length="26.45" shape="876.95,735.96 873.50,729.00 869.38,723.65 864.60,719.90 859.16,717.75"/>
    </edge>
    <edge id=":a23_1" function="internal">
        <lane id=":a23_1_0" index="0" speed="13.89" length="32.69" shape="879.91,734.75 866.21,705.07"/>
    </edge>
    <edge id=":a23_2" function="internal">
        <lane id=":a23_2_0" index="0" speed="13.89" length="24.76" shape="870.92,703.08 874.34,709.72 878.25,714.80 882.63,718.33 887.51,720.30"/>
    </edge>
    <edge id=":a23_3" function="internal">
        <lane id=":a23_3_0" index="0" speed="13.89" length="32.79" shape="870.92,703.08 886.12,732.21"/>
        <lane id=":a23_3_1" index="1" speed="13.89" length="32.79" shape="870.92,703.08 883.16,733.43"/>
    </edge>
    <edge id=":a23_5" function="internal">
        <lane id=":a23_5_0" index="0" speed="8.57" length="8.12" shape="870.92,703.08 872.25,709.76 871.80,711.00"/>
    </edge>
    <edge id=":a23_10" function="internal">
        <lane id=":a23_10_0" index="0" speed="8.57" length="16.24" shape="871.80,711.00 870.40,714.90 865.86,717.81 859.16,717.75"/>
    </edge>
    <edge id=":a23_6" function="internal">
        <lane id=":a23_6_0" index="0" speed="7.16" length="16.50" shape="859.88,714.63 864.59,715.04 867.21,713.58 867.75,710.26 866.21,705.07"/>
    </edge>
    <edge id=":a23_7" function="internal">
        <lane id=":a23_7_0" index="0" speed="13.89" length="28.20" shape="859.88,714.63 887.51,720.30"/>
    </edge>
    <edge id=":a23_8" function="internal">
        <lane id=":a23_8_0" index="0" speed="13.89" length="31.12" shape="859.88,714.63 867.80,717.31 874.32,721.34 879.44,726.71 883.16,733.43"/>
    </edge>
    <edge id=":a23_9" function="internal">
        <lane id=":a23_9_0" index="0" speed="3.65" length="4.67" shape="859.88,714.63 860.87,715.68 861.08,716.55 860.51,717.24 859.16,717.75"/>
    </edge>
    <edge id=":a24_0" function="internal">
        <lane id=":a24_0_0" index="0" speed="13.89" length="12.60" shape="1037.21,59.29 1033.17,47.35"/>
    </edge>
    <edge id=":a24_1" function="internal">
        <lane id=":a24_1_0" index="0" speed="6.49" length="14.85" shape="1037.21,59.29 1036.84,56.34 1038.46,55.31 1042.06,56.19 1047.64,59.00"/>
    </edge>
    <edge id=":a25_0" function="internal">
        <lane id=":a25_0_0" index="0" speed="3.91" length="2.39" shape="989.99,91.54 990.63,91.47 991.16,91.62 991.58,91.97 991.88,92.55"/>
    </edge>
    <edge id=":a25-begin_0" function="internal">
        <lane id=":a25-begin_0_0" index="0" speed="3.65" length="4.67" shape="526.38,670.21 525.30,669.26 525.01,668.41 525.52,667.67 526.81,667.04"/>
    </edge>
    <edge id=":a26_0" function="internal">
        <lane id=":a26_0_0" index="0" allow="bus" speed="13.89" length="18.88" shape="1954.51,571.23 1951.23,573.08 1948.01,576.09 1943.91,579.24 1938.00,581.52"/>
        <lane id=":a26_0_1" index="1" allow="bus" speed="13.89" length="18.88" shape="1954.51,571.23 1951.06,572.61 1947.52,574.56 1943.18,576.63 1937.34,578.39"/>
        <lane id=":a26_0_2" index="2" allow="bus" speed="13.89" length="18.88" shape="1954.51,571.23 1936.67,575.26"/>
    </edge>
    <edge id=":a26_3" function="internal">
        <lane id=":a26_3_0" index="0" speed="13.89" length="18.15" shape="1936.00,572.13 1953.71,568.14"/>
    </edge>
    <edge id=":a26_4" function="internal">
        <lane id=":a26_4_0" index="0" speed="5.77" length="9.16" shape="1942.93,586.51 1943.16,583.82 1942.41,582.09 1940.69,581.33 1938.00,581.52"/>
        <lane id=":a26_4_1" index="1" allow="bus" speed="6.68" length="12.74" shape="1942.93,586.51 1943.41,582.33 1942.63,579.59 1940.61,578.28 1937.34,578.39"/>
    </edge>
    <edge id=":a26_6" function="internal">
        <lane id=":a26_6_0" index="0" speed="12.26" length="22.16" shape="1942.93,586.51 1945.00,579.15 1947.49,573.64 1950.39,569.97 1953.71,568.14"/>
    </edge>
    <edge id=":a26_7" function="internal">
        <lane id=":a26_7_0" index="0" speed="3.77" length="5.15" shape="1942.93,586.51 1944.08,585.41 1945.04,585.17 1945.80,585.79 1946.38,587.28"/>
    </edge>
    <edge id=":a27_0" function="internal">
        <lane id=":a27_0_0" index="0" speed="11.36" length="19.02" shape="1926.84,583.90 1922.26,585.49 1918.59,588.13 1915.83,591.80 1913.98,596.51"/>
    </edge>
    <edge id=":a27_1" function="internal">
        <lane id=":a27_1_0" index="0" allow="bus" speed="13.89" length="37.24" shape="1926.21,580.76 1914.99,581.19 1904.24,579.15 1895.31,576.68 1889.57,575.82"/>
    </edge>
    <edge id=":a27_2" function="internal">
        <lane id=":a27_2_0" index="0" speed="9.75" length="14.79" shape="1925.58,577.63 1918.57,577.00 1911.74,573.33"/>
    </edge>
    <edge id=":a27_14" function="internal">
        <lane id=":a27_14_0" index="0" speed="9.75" length="14.24" shape="1911.74,573.33 1911.56,573.24 1906.54,567.56 1905.46,561.19"/>
    </edge>
    <edge id=":a27_3" function="internal">
        <lane id=":a27_3_0" index="0" speed="6.63" length="12.54" shape="1921.07,565.05 1920.36,569.61 1920.77,572.68 1922.29,574.26 1924.92,574.36"/>
    </edge>
    <edge id=":a27_4" function="internal">
        <lane id=":a27_4_0" index="0" speed="13.89" length="32.19" shape="1921.07,565.05 1913.98,596.51"/>
        <lane id=":a27_4_1" index="1" speed="13.89" length="32.19" shape="1917.96,564.28 1910.89,595.69"/>
        <lane id=":a27_4_2" index="2" speed="13.89" length="32.19" shape="1914.85,563.51 1907.80,594.87"/>
    </edge>
    <edge id=":a27_7" function="internal">
        <lane id=":a27_7_0" index="0" allow="bus" speed="13.47" length="16.37" shape="1914.85,563.51 1912.53,567.43 1907.54,570.79 1902.09,572.78"/>
    </edge>
    <edge id=":a27_15" function="internal">
        <lane id=":a27_15_0" index="0" allow="bus" speed="13.47" length="12.90" shape="1902.09,572.78 1899.88,573.58 1889.57,575.82"/>
    </edge>
    <edge id=":a27_8" function="internal">
        <lane id=":a27_8_0" index="0" speed="9.37" length="13.72" shape="1887.96,566.21 1892.44,565.18 1895.82,563.75 1898.09,561.90 1899.25,559.65"/>
    </edge>
    <edge id=":a27_9" function="internal">
        <lane id=":a27_9_0" index="0" speed="13.89" length="36.97" shape="1888.49,569.36 1899.74,569.26 1910.42,571.33 1919.24,573.66 1924.92,574.36"/>
    </edge>
    <edge id=":a27_10" function="internal">
        <lane id=":a27_10_0" index="0" speed="11.07" length="10.96" shape="1889.02,572.52 1896.94,574.46 1899.21,576.10"/>
    </edge>
    <edge id=":a27_16" function="internal">
        <lane id=":a27_16_0" index="0" speed="11.07" length="26.24" shape="1899.21,576.10 1905.65,580.76 1912.28,588.94 1913.98,596.51"/>
    </edge>
    <edge id=":a27_11" function="internal">
        <lane id=":a27_11_0" index="0" speed="13.89" length="31.86" shape="1891.84,590.62 1899.25,559.65"/>
        <lane id=":a27_11_1" index="1" speed="13.89" length="31.86" shape="1894.94,591.44 1902.36,560.42"/>
    </edge>
    <edge id=":a27_13" function="internal">
        <lane id=":a27_13_0" index="0" speed="13.89" length="16.31" shape="1898.03,592.26 1900.99,586.21 1906.45,581.21 1908.39,580.25"/>
    </edge>
    <edge id=":a27_17" function="internal">
        <lane id=":a27_17_0" index="0" speed="13.89" length="17.62" shape="1908.39,580.25 1914.43,577.26 1924.92,574.36"/>
    </edge>
    <edge id=":a28_0" function="internal">
        <lane id=":a28_0_0" index="0" speed="13.89" length="11.26" shape="1050.51,239.02 1039.76,242.38"/>
    </edge>
    <edge id=":a28_1" function="internal">
        <lane id=":a28_1_0" index="0" speed="6.55" length="9.02" shape="1042.37,232.45 1043.54,234.65 1045.11,235.98 1047.09,236.42 1049.49,235.99"/>
    </edge>
    <edge id=":a28_2" function="internal">
        <lane id=":a28_2_0" index="0" speed="7.16" length="11.72" shape="1042.37,232.45 1043.34,236.18 1043.22,239.08 1042.03,241.15 1039.76,242.38"/>
    </edge>
    <edge id=":a28_3" function="internal">
        <lane id=":a28_3_0" index="0" speed="13.89" length="11.11" shape="1038.88,239.30 1049.49,235.99"/>
    </edge>
    <edge id=":a29_0" function="internal">
        <lane id=":a29_0_0" index="0" speed="13.89" length="8.29" shape="1875.27,654.97 1877.29,646.89"/>
        <lane id=":a29_0_1" index="1" speed="13.89" length="8.29" shape="1878.37,655.73 1880.39,647.69"/>
        <lane id=":a29_0_2" index="2" speed="13.89" length="8.29" shape="1881.48,656.50 1883.49,648.49"/>
    </edge>
    <edge id=":a3_0" function="internal">
        <lane id=":a3_0_0" index="0" speed="6.69" length="9.22" shape="1827.60,820.98 1830.24,821.11 1832.29,820.46 1833.76,819.03 1834.65,816.82"/>
        <lane id=":a3_0_1" index="1" speed="8.15" length="14.20" shape="1827.04,824.13 1831.03,824.30 1834.15,823.26 1836.40,821.01 1837.77,817.54"/>
        <lane id=":a3_0_2" index="2" speed="9.39" length="19.17" shape="1826.49,827.28 1831.83,827.50 1836.01,826.07 1839.03,822.98 1840.89,818.25"/>
    </edge>
    <edge id=":a3_3" function="internal">
        <lane id=":a3_3_0" index="0" speed="13.89" length="17.11" shape="1826.49,827.28 1831.95,827.65 1836.19,827.00 1839.81,826.07 1843.38,825.55"/>
    </edge>
    <edge id=":a3_4" function="internal">
        <lane id=":a3_4_0" index="0" speed="13.89" length="16.21" shape="1830.84,832.49 1834.65,816.82"/>
        <lane id=":a3_4_1" index="1" speed="13.89" length="16.21" shape="1833.94,833.29 1837.77,817.54"/>
        <lane id=":a3_4_2" index="2" speed="13.89" length="16.21" shape="1837.04,834.09 1840.89,818.25"/>
    </edge>
    <edge id=":a30_0" function="internal">
        <lane id=":a30_0_0" index="0" speed="13.89" length="11.44" shape="923.13,261.17 919.93,261.30 917.40,261.54 914.88,261.67 911.71,261.44"/>
    </edge>
    <edge id=":a30_1" function="internal">
        <lane id=":a30_1_0" index="0" speed="6.51" length="8.76" shape="917.57,252.58 917.99,254.93 919.06,256.62 920.78,257.63 923.14,257.97"/>
    </edge>
    <edge id=":a30_2" function="internal">
        <lane id=":a30_2_0" index="0" speed="7.11" length="8.90" shape="917.57,252.58 917.34,256.76 916.28,259.63 915.01,260.69"/>
    </edge>
    <edge id=":a30_6" function="internal">
        <lane id=":a30_6_0" index="0" speed="7.11" length="3.49" shape="915.01,260.69 914.41,261.19 911.71,261.44"/>
    </edge>
    <edge id=":a30_3" function="internal">
        <lane id=":a30_3_0" index="0" speed="13.89" length="11.04" shape="912.13,258.27 915.24,258.49 917.62,258.36 920.01,258.10 923.14,257.97"/>
    </edge>
    <edge id=":a30_4" function="internal">
        <lane id=":a30_4_0" index="0" speed="6.67" length="8.98" shape="916.97,267.47 916.75,265.10 915.80,263.31 914.12,262.09 911.71,261.44"/>
    </edge>
    <edge id=":a30_5" function="internal">
        <lane id=":a30_5_0" index="0" speed="7.70" length="9.38" shape="916.97,267.47 917.54,263.31 918.76,260.34 920.19,258.98"/>
    </edge>
    <edge id=":a30_7" function="internal">
        <lane id=":a30_7_0" index="0" speed="7.70" length="3.19" shape="920.19,258.98 920.63,258.56 923.14,257.97"/>
    </edge>
    <edge id=":a31_0" function="internal">
        <lane id=":a31_0_0" index="0" speed="7.62" length="12.70" shape="1100.16,222.37 1098.00,223.69 1096.88,225.98 1096.78,229.25 1097.71,233.50"/>
    </edge>
    <edge id=":a31_1" function="internal">
        <lane id=":a31_1_0" index="0" speed="13.89" length="11.40" shape="1100.16,222.37 1089.32,225.89"/>
    </edge>
    <edge id=":a31_2" function="internal">
        <lane id=":a31_2_0" index="0" speed="6.49" length="9.03" shape="1088.29,222.86 1090.51,221.74 1091.82,220.18 1092.24,218.19 1091.76,215.76"/>
    </edge>
    <edge id=":a31_3" function="internal">
        <lane id=":a31_3_0" index="0" speed="13.89" length="11.47" shape="1088.29,222.86 1099.20,219.31"/>
    </edge>
    <edge id=":a31_4" function="internal">
        <lane id=":a31_4_0" index="0" speed="8.29" length="2.44" shape="1088.29,222.86 1090.73,222.82"/>
    </edge>
    <edge id=":a31_5" function="internal">
        <lane id=":a31_5_0" index="0" speed="8.29" length="13.22" shape="1090.73,222.82 1090.98,222.81 1093.44,224.57 1095.69,228.13 1097.71,233.50"/>
    </edge>
    <edge id=":a32_0" function="internal">
        <lane id=":a32_0_0" index="0" speed="6.55" length="9.05" shape="1142.78,214.91 1141.68,212.68 1140.13,211.33 1138.14,210.86 1135.70,211.25"/>
    </edge>
    <edge id=":a32_1" function="internal">
        <lane id=":a32_1_0" index="0" speed="7.41" length="12.04" shape="1142.78,214.91 1141.93,211.13 1142.14,208.17 1143.41,206.01 1145.74,204.66"/>
    </edge>
    <edge id=":a32_2" function="internal">
        <lane id=":a32_2_0" index="0" speed="13.89" length="11.60" shape="1146.75,207.70 1135.70,211.25"/>
    </edge>
    <edge id=":a32_3" function="internal">
        <lane id=":a32_3_0" index="0" speed="8.10" length="14.90" shape="1136.83,194.50 1138.72,199.61 1140.83,203.01 1143.18,204.69 1145.74,204.66"/>
    </edge>
    <edge id=":a32_4" function="internal">
        <lane id=":a32_4_0" index="0" speed="9.02" length="18.13" shape="1136.83,194.50 1138.43,201.17 1138.78,206.19 1137.87,209.55 1135.70,211.25"/>
    </edge>
    <edge id=":a32_5" function="internal">
        <lane id=":a32_5_0" index="0" speed="13.89" length="11.55" shape="1134.75,208.20 1145.74,204.66"/>
    </edge>
    <edge id=":a33_0" function="internal">