<additional>
    <busStop id="41011" lane="319389908#0_0" startPos="11.6848678298" endPos="41.6848678298" name="S?dstra?e Pos. 11" friendlyPos="true" />
    <busStop id="19712" lane="323951971#1_0" startPos="158.604984783" endPos="188.604984783" name="Holzmindener Stra?e Pos. 12" friendlyPos="true" />
    <busStop id="19711" lane="-323951971#6_0" startPos="0.0" endPos="30.0" name="Holzmindener Stra?e Pos. 11" friendlyPos="true" />
    <busStop id="41012" lane="5021501#0_0" startPos="0.0" endPos="30.0" name="S?dstra?e Pos. 12" friendlyPos="true" />
    <busStop id="54211" lane="332896119#1_0" startPos="0.0" endPos="30.0" name="Museumstra?e Pos. 11" friendlyPos="true" />
    <busStop id="54212" lane="317365381#0_0" startPos="0.0" endPos="30.0" name="Museumstra?e Pos. 12" friendlyPos="true" />
    <busStop id="7812" lane="-30773148#9_0" startPos="52.9282961789" endPos="82.9282961789" name="Brockenblick Pos. 12" friendlyPos="true" />
    <busStop id="38612" lane="4747687#4_0" startPos="41.6382673948" endPos="71.6382673948" name="Sielkamp Pos. 12" friendlyPos="true" />
    <busStop id="39711" lane="41290240#0_0" startPos="0.0" endPos="30.0" name="Stadtpark Pos. 11" friendlyPos="true" />
    <busStop id="39712" lane="533525960_0" startPos="53.1926070195" endPos="83.1926070195" name="Stadtpark Pos. 12" friendlyPos="true" />
    <busStop id="14912" lane="35047528#1_0" startPos="0.0" endPos="30.0" name="Gliesmaroder Stra?e Pos. 12" friendlyPos="true" />
    <busStop id="7512" lane="315422093#0_0" startPos="0.0" endPos="30.0" name="Schloss Pos. 12" friendlyPos="true" />
    <busStop id="7511" lane="27220216_0" startPos="0.0" endPos="30.0" name="Schloss Pos. 11" friendlyPos="true" />
    <busStop id="23511" lane="-5184855#3_0" startPos="254.761238696" endPos="284.761238696" name="Herzogin-Elisabeth-Stra?e Pos. 11" friendlyPos="true" />
    <busStop id="18812" lane="55833388#2_0" startPos="194.75674058" endPos="224.75674058" name="Noetherstra?e Pos. 12" friendlyPos="true" />
    <busStop id="18811" lane="-55833388#4_0" startPos="324.579557761" endPos="354.579557761" name="Noetherstra?e Pos. 11" friendlyPos="true" />
    <busStop id="23512" lane="5184855#0_0" startPos="13.2978853447" endPos="43.2978853447" name="Herzogin-Elisabeth-Stra?e Pos. 12" friendlyPos="true" />
    <busStop id="2911" lane="-173277793_0" startPos="134.134944207" endPos="164.134944207" name="Am Kalkwerk Pos. 11" friendlyPos="true" />
    <busStop id="2912" lane="621507752#1_0" startPos="0.0" endPos="30.0" name="Am Kalkwerk Pos. 12" friendlyPos="true" />
    <busStop id="14911" lane="33049438#1_0" startPos="17.2075958473" endPos="47.2075958473" name="Gliesmaroder Stra?e Pos. 11" friendlyPos="true" />
    <busStop id="2914" lane="621507752#1_0" startPos="109.942445326" endPos="139.942445326" name="Am Kalkwerk Pos. 14" friendlyPos="true" />
    <busStop id="30212" lane="-610184077_0" startPos="0.0" endPos="30.0" name="Nehrkornweg Pos. 12" friendlyPos="true" />
    <busStop id="30211" lane="-610184077_0" startPos="0.0" endPos="30.0" name="Nehrkornweg Pos. 11" friendlyPos="true" />
    <busStop id="37911" lane="-246580705#4_0" startPos="21.0744605565" endPos="51.0744605565" name="Schwarzer Kamp Pos. 11" friendlyPos="true" />
    <busStop id="32711" lane="-625238456_0" startPos="0.0" endPos="30.0" name="Peterskamp Pos. 11" friendlyPos="true" />
    <busStop id="32712" lane="625238454_0" startPos="2.00334467667" endPos="32.0033446767" name="Peterskamp Pos. 12" friendlyPos="true" />
    <busStop id="37912" lane="246580705#1_0" startPos="214.045669043" endPos="244.045669043" name="Schwarzer Kamp Pos. 12" friendlyPos="true" />
    <busStop id="42511" lane="-7016592#4_0" startPos="28.3416559613" endPos="58.3416559613" name="Unter den Linden Pos. 11" friendlyPos="true" />
    <busStop id="42512" lane="7016592#0_0" startPos="0.0" endPos="30.0" name="Unter den Linden Pos. 12" friendlyPos="true" />
    <busStop id="14211" lane="-238389805#11_0" startPos="363.340709645" endPos="393.340709645" name="Luftfahrtbundesamt Pos. 11" friendlyPos="true" />
    <busStop id="14212" lane="500532444#0_0" startPos="594.983727822" endPos="624.983727822" name="Luftfahrtbundesamt Pos. 12" friendlyPos="true" />
    <busStop id="58311" lane="381603795#8_0" startPos="130.000432605" endPos="160.000432605" name="Neckarstra?e Pos. 11" friendlyPos="true" />
    <busStop id="17911" lane="334152813#6_0" startPos="0.0" endPos="30.0" name="Hauptfriedhof Pos. 11" friendlyPos="true" />
    <busStop id="31912" lane="6074642#3_0" startPos="0.0" endPos="30.0" name="Ottenroder Stra?e Pos. 12" friendlyPos="true" />
    <busStop id="31911" lane="6074641#3_0" startPos="62.8587779916" endPos="92.8587779916" name="Ottenroder Stra?e Pos. 11" friendlyPos="true" />
    <busStop id="2312" lane="30425410#4_0" startPos="37.5965594644" endPos="67.5965594644" name="Am Forst Pos. 12" friendlyPos="true" />
    <busStop id="2311" lane="-30425410#5_0" startPos="18.7611014709" endPos="48.7611014709" name="Am Forst Pos. 11" friendlyPos="true" />
    <busStop id="36611" lane="-657618384_0" startPos="26.7956686669" endPos="56.7956686669" name="Sandanger Pos. 11" friendlyPos="true" />
    <busStop id="36612" lane="10750085#6_0" startPos="91.9763693814" endPos="121.976369381" name="Sandanger Pos. 12" friendlyPos="true" />
    <busStop id="37212" lane="-108915782#2_0" startPos="0.0" endPos="30.0" name="Schlesierweg Pos. 12" friendlyPos="true" />
    <busStop id="5912" lane="501199062#0_0" startPos="0.0" endPos="30.0" name="Bahnhof Gliesmarode Pos. 12" friendlyPos="true" />
    <busStop id="32012" lane="-647345116#1_0" startPos="0.0" endPos="30.0" name="Ottweilerstra?e Pos. 12" friendlyPos="true" />
    <busStop id="32011" lane="380290359#0_0" startPos="402.179453394" endPos="432.179453394" name="Ottweilerstra?e Pos. 11" friendlyPos="true" />
    <busStop id="22711" lane="-24570897#0_0" startPos="0.0" endPos="30.0" name="J?delstra?e Pos. 11" friendlyPos="true" />
    <busStop id="22712" lane="-24570897#0_0" startPos="0.0" endPos="30.0" name="J?delstra?e Pos. 12" friendlyPos="true" />
    <busStop id="33811" lane="60922609#0_0" startPos="23.4179335807" endPos="53.4179335807" name="Radeklint Pos. 11" friendlyPos="true" />
    <busStop id="33812" lane="30424335#0_0" startPos="2.40035099542" endPos="32.4003509954" name="Radeklint Pos. 12" friendlyPos="true" />
    <busStop id="57611" lane="-610203691_0" startPos="24.5994293236" endPos="54.5994293236" name="Alter Rautheimer Weg Pos. 11" friendlyPos="true" />
    <busStop id="57612" lane="610203691_0" startPos="50.6540965398" endPos="80.6540965398" name="Alter Rautheimer Weg Pos. 12" friendlyPos="true" />
    <busStop id="12011" lane="24727641#1_0" startPos="36.0520936857" endPos="66.0520936857" name="Emma-Kraume-Stra?e Pos. 11" friendlyPos="true" />
    <chargingStation id="4" chargeDelay="2" chargeInTransit="1" power="200000" efficiency="0.95" endPos="39.8606752464" lane="6144590#1_0" startPos="9.86067524639" friendlyPos="true" />
    <busStop id="12012" lane="24727641#1_0" startPos="12.2393470871" endPos="42.2393470871" name="Emma-Kraume-Stra?e Pos. 12" friendlyPos="true" />
    <busStop id="17313" lane="307704875#0_0" startPos="0.923889576185" endPos="30.9238895762" name="Hansestra?e Mitte Pos. 13" friendlyPos="true" />
    <busStop id="17314" lane="511308706#0_0" startPos="0.0" endPos="30.0" name="Hansestra?e Mitte Pos. 14" friendlyPos="true" />
    <busStop id="8512" lane="320432219#0_0" startPos="0.0" endPos="30.0" name="B?rgerpark Pos. 12" friendlyPos="true" />
    <busStop id="4212" lane="23620035#6_0" startPos="0.0" endPos="30.0" name="Am Queckenberg Pos. 12" friendlyPos="true" />
    <busStop id="31412" lane="311549884#0_0" startPos="0.0" endPos="30.0" name="Otto-von-Guericke-Stra?e Pos. 12" friendlyPos="true" />
    <busStop id="31411" lane="32055649#0_0" startPos="0.0" endPos="30.0" name="Otto-von-Guericke-Stra?e Pos. 11" friendlyPos="true" />
    <busStop id="34111" lane="-323956185#1_0" startPos="7.38666083915" endPos="37.3866608391" name="Zivildienstschule Pos. 11" friendlyPos="true" />
    <busStop id="34112" lane="361120214#0_0" startPos="45.4806880645" endPos="75.4806880645" name="Zivildienstschule Pos. 12" friendlyPos="true" />
    <busStop id="2514" lane="-5989176#1_0" startPos="92.4687868926" endPos="122.468786893" name="Am Grasplatz Pos. 14" friendlyPos="true" />
    <busStop id="27714" lane="173277151#0_0" startPos="157.187669753" endPos="187.187669753" name="Liegnitzstra?e Pos. 14" friendlyPos="true" />
    <busStop id="5811" lane="377715252#0_0" startPos="0.0" endPos="30.0" name="Korfesstra?e Pos. 11" friendlyPos="true" />
    <busStop id="37311" lane="53650434#0_0" startPos="11.517520748" endPos="41.517520748" name="Schmalbachstra?e Pos. 11" friendlyPos="true" />
    <busStop id="28712" lane="508536571_0" startPos="9.16958869445" endPos="39.1695886945" name="Maybachstra?e Pos. 12" friendlyPos="true" />
    <busStop id="28711" lane="-508536570_0" startPos="53.0012187008" endPos="83.0012187008" name="Maybachstra?e Pos. 11" friendlyPos="true" />
    <busStop id="16811" lane="81362183#0_0" startPos="25.5046570466" endPos="55.5046570466" name="Hallestra?e Pos. 11" friendlyPos="true" />
    <busStop id="16812" lane="5199987#4_0" startPos="300.976515251" endPos="330.976515251" name="Hallestra?e Pos. 12" friendlyPos="true" />
    <busStop id="39311" lane="-10061776#4_0" startPos="1.04160444064" endPos="31.0416044406" name="St.-Wendel-Stra?e Pos. 11" friendlyPos="true" />
    <busStop id="39312" lane="10061776#3_0" startPos="37.8541061683" endPos="67.8541061683" name="St.-Wendel-Stra?e Pos. 12" friendlyPos="true" />
    <busStop id="11612" lane="610178987#1_0" startPos="4.73898647597" endPos="34.738986476" name="Eichhahnweg Pos. 12" friendlyPos="true" />
    <busStop id="11611" lane="-23952837#0_0" startPos="12.2885672559" endPos="42.2885672559" name="Eichhahnweg Pos. 11" friendlyPos="true" />
    <busStop id="45112" lane="-55846848#0_0" startPos="0.0" endPos="30.0" name="Welfenplatz Pos. 12" friendlyPos="true" />
    <busStop id="45113" lane="24936966_0" startPos="1.84408898245" endPos="31.8440889825" name="Welfenplatz Pos. 13" friendlyPos="true" />
    <busStop id="2612" lane="-611101996#0_0" startPos="75.1766335834" endPos="105.176633583" name="Am Hafen Pos. 12" friendlyPos="true" />
    <busStop id="2611" lane="-611101996#0_0" startPos="82.519143754" endPos="112.519143754" name="Am Hafen Pos. 11" friendlyPos="true" />
    <busStop id="42812" lane="-30426838#3_0" startPos="93.9687845574" endPos="123.968784557" name="Varrentrappstra?e Pos. 12" friendlyPos="true" />
    <busStop id="37411" lane="-27127973#2_0" startPos="413.012245881" endPos="443.012245881" name="Sch?ppenstedter Turm Pos. 11" friendlyPos="true" />
    <busStop id="37412" lane="32043134#0_0" startPos="53.2066456058" endPos="83.2066456058" name="Sch?ppenstedter Turm Pos. 12" friendlyPos="true" />
    <busStop id="5111" lane="231661249#0_0" startPos="4.89782270957" endPos="34.8978227096" name="Maienstra?e Pos. 11" friendlyPos="true" />
    <busStop id="3512" lane="-610178983#0_0" startPos="63.3003853999" endPos="93.3003853999" name="Am Markt Pos. 12" friendlyPos="true" />
    <busStop id="3511" lane="4526596#2_0" startPos="186.264781257" endPos="216.264781257" name="Am Markt Pos. 11" friendlyPos="true" />
    <busStop id="5112" lane="106531540#0_0" startPos="4.25065549077" endPos="34.2506554908" name="Maienstra?e Pos. 12" friendlyPos="true" />
    <busStop id="38312" lane="-511268001#6_0" startPos="6.67245969595" endPos="36.672459696" name="Siegfriedstra?e Pos. 12" friendlyPos="true" />
    <busStop id="38313" lane="6074641#0_0" startPos="18.8281406615" endPos="48.8281406615" name="Siegfriedstra?e Pos. 13" friendlyPos="true" />
    <busStop id="38311" lane="221477557#0_0" startPos="0.0" endPos="30.0" name="Siegfriedstra?e Pos. 11" friendlyPos="true" />
    <busStop id="37111" lane="511308710#0_0" startPos="171.978756075" endPos="201.978756075" name="Benzstra?e Pos. 11" friendlyPos="true" />
    <busStop id="33212" lane="30425847#3_0" startPos="8.24886645445" endPos="38.2488664545" name="Pockelsstra?e Pos. 12" friendlyPos="true" />
    <busStop id="32612" lane="624354913#0_0" startPos="45.8370399963" endPos="75.8370399963" name="Paxmannstra?e Pos. 12" friendlyPos="true" />
    <busStop id="30411" lane="5989176#2_0" startPos="27.6933808844" endPos="57.6933808844" name="Neuruppinstra?e Pos. 11" friendlyPos="true" />
    <busStop id="30412" lane="5989176#2_0" startPos="11.636112012" endPos="41.636112012" name="Neuruppinstra?e Pos. 12" friendlyPos="true" />
    <busStop id="29711" lane="191916910#2_0" startPos="38.0364338527" endPos="68.0364338527" name="Moorh?ttenweg Pos. 11" friendlyPos="true" />
    <busStop id="18512" lane="24377268#3_0" startPos="92.6047518879" endPos="122.604751888" name="Heideh?he Pos. 12" friendlyPos="true" />
    <busStop id="13112" lane="610203798_0" startPos="49.9003969754" endPos="79.9003969754" name="Eutschenwinkel Pos. 12" friendlyPos="true" />
    <busStop id="13111" lane="-107426023_0" startPos="14.0570748548" endPos="44.0570748548" name="Eutschenwinkel Pos. 11" friendlyPos="true" />
    <busStop id="18511" lane="23040706#4_0" startPos="2.19488200291" endPos="32.1948820029" name="Heideh?he Pos. 11" friendlyPos="true" />
    <busStop id="61412" lane="23685356#6_0" startPos="0.0" endPos="30.0" name="Buchfinkweg Pos. 12" friendlyPos="true" />
    <busStop id="61411" lane="23685356#6_0" startPos="0.0" endPos="30.0" name="Buchfinkweg Pos. 11" friendlyPos="true" />
    <busStop id="37312" lane="47291035#0_0" startPos="5.22126724605" endPos="35.221267246" name="Schmalbachstra?e Pos. 12" friendlyPos="true" />
    <busStop id="5812" lane="207083565#0_0" startPos="0.0" endPos="30.0" name="Korfesstra?e Pos. 12" friendlyPos="true" />
    <busStop id="40112" lane="-30642178#1_0" startPos="197.85424862" endPos="227.85424862" name="Steinkamp Pos. 12" friendlyPos="true" />
    <busStop id="40111" lane="30642178#0_0" startPos="103.370434556" endPos="133.370434556" name="Steinkamp Pos. 11" friendlyPos="true" />
    <busStop id="16212" lane="127240643#2_0" startPos="0.0" endPos="30.0" name="Holzhof (Volkswagen Halle) Pos. 12" friendlyPos="true" />
    <busStop id="16211" lane="59393474#4_0" startPos="8.92040060236" endPos="38.9204006024" name="Holzhof (Volkswagen Halle) Pos. 11" friendlyPos="true" />
    <busStop id="17611" lane="-500532442_0" startPos="218.932617027" endPos="248.932617027" name="Flugunfalluntersuchungsstelle Pos. 11" friendlyPos="true" />
    <busStop id="17612" lane="238389805#12_0" startPos="0.0" endPos="30.0" name="Flugunfalluntersuchungsstelle Pos. 12" friendlyPos="true" />
    <busStop id="4611" lane="317191948_0" startPos="87.5975856918" endPos="117.597585692" name="Am Wassertor (Volkswagen Halle) Pos. 11" friendlyPos="true" />
    <busStop id="17821" lane="372159169_0" startPos="22.0633375529" endPos="52.0633375529" name="Hauptbahnhof Pos. 21" friendlyPos="true" />
    <busStop id="57711" lane="-30425068#2_0" startPos="0.0" endPos="30.0" name="Schreinerweg Pos. 11" friendlyPos="true" />
    <busStop id="57712" lane="30425068#2_0" startPos="21.872044319" endPos="51.872044319" name="Schreinerweg Pos. 12" friendlyPos="true" />
    <busStop id="43012" lane="-4839258#1_0" startPos="0.0" endPos="30.0" name="Westfalenplatz Pos. 12" friendlyPos="true" />
    <busStop id="43011" lane="-4839258#1_0" startPos="0.0" endPos="30.0" name="Westfalenplatz Pos. 11" friendlyPos="true" />
    <busStop id="25714" lane="314690803#0_0" startPos="0.0" endPos="30.0" name="Kreuzteich Pos. 14" friendlyPos="true" />
    <busStop id="25711" lane="-398891520_0" startPos="25.0273462545" endPos="55.0273462545" name="Kreuzteich Pos. 11" friendlyPos="true" />
    <busStop id="25712" lane="-398891520_0" startPos="0.0" endPos="30.0" name="Kreuzteich Pos. 12" friendlyPos="true" />
    <busStop id="25713" lane="-314690803#2_0" startPos="0.0" endPos="30.0" name="Kreuzteich Pos. 13" friendlyPos="true" />
    <busStop id="4311" lane="171201109_0" startPos="20.9857597862" endPos="50.9857597862" name="Am Remenhof Pos. 11" friendlyPos="true" />
    <busStop id="4312" lane="-171201109_0" startPos="69.785433349" endPos="99.785433349" name="Am Remenhof Pos. 12" friendlyPos="true" />
    <busStop id="9111" lane="4764512#0_0" startPos="205.392823839" endPos="235.392823839" name="Christian-Pommer-Stra?e Pos. 11" friendlyPos="true" />
    <busStop id="9112" lane="-4764512#8_0" startPos="371.438378957" endPos="401.438378957" name="Christian-Pommer-Stra?e Pos. 12" friendlyPos="true" />
    <busStop id="512" lane="511308724#0_0" startPos="169.396401488" endPos="199.396401488" name="Adam-Opel-Stra?e Pos. 12" friendlyPos="true" />
    <busStop id="62012" lane="122024415_0" startPos="25.122008541" endPos="55.122008541" name="Militschstra?e Pos. 12" friendlyPos="true" />
    <busStop id="62011" lane="-122024415_0" startPos="228.668873739" endPos="258.668873739" name="Militschstra?e Pos. 11" friendlyPos="true" />
    <busStop id="26711" lane="-610196760#1_0" startPos="0.86464672561" endPos="30.8646467256" name="Lehmweg Pos. 11" friendlyPos="true" />
    <busStop id="4914" lane="48861560#0_0" startPos="14.1331281092" endPos="44.1331281092" name="Amalienplatz/Wei?es Ross Pos. 14" friendlyPos="true" />
    <busStop id="26712" lane="-610196760#1_0" startPos="0.0" endPos="30.0" name="Lehmweg Pos. 12" friendlyPos="true" />
    <busStop id="4912" lane="7975424#0_0" startPos="38.3534923465" endPos="68.3534923465" name="Amalienplatz/Wei?es Ross Pos. 12" friendlyPos="true" />
    <busStop id="4913" lane="299910129#0_0" startPos="0.82310402004" endPos="30.82310402" name="Amalienplatz/Wei?es Ross Pos. 13" friendlyPos="true" />
    <busStop id="4911" lane="83723985#0_0" startPos="8.87646649231" endPos="38.8764664923" name="Amalienplatz/Wei?es Ross Pos. 11" friendlyPos="true" />
    <busStop id="11712" lane="505164560#0_0" startPos="0.0" endPos="30.0" name="Zum Zoll Pos. 12" friendlyPos="true" />
    <busStop id="11711" lane="-505164561_0" startPos="0.0" endPos="30.0" name="Zum Zoll Pos. 11" friendlyPos="true" />
    <busStop id="2712" lane="538998009#0_0" startPos="12.5921586198" endPos="42.5921586198" name="Julius-K?hn-Institut Pos. 12" friendlyPos="true" />
    <busStop id="2711" lane="-538998009#4_0" startPos="18.6489629528" endPos="48.6489629528" name="Julius-K?hn-Institut Pos. 11" friendlyPos="true" />
    <busStop id="3412" lane="23272948_0" startPos="0.0" endPos="30.0" name="Am Magnitor Pos. 12" friendlyPos="true" />
    <busStop id="3411" lane="23272948_0" startPos="5.80167289987" endPos="35.8016728999" name="Am Magnitor Pos. 11" friendlyPos="true" />
    <busStop id="23612" lane="181614091#0_0" startPos="1.88328149429" endPos="31.8832814943" name="Weizenbleek Pos. 12" friendlyPos="true" />
    <busStop id="39812" lane="4526596#0_0" startPos="179.319246268" endPos="209.319246268" name="Sch?nebergstra?e Pos. 12" friendlyPos="true" />
    <busStop id="8012" lane="59393481#0_0" startPos="22.5032920236" endPos="52.5032920236" name="Johannes-Selenka-Platz Pos. 12" friendlyPos="true" />
    <busStop id="8011" lane="217194754#0_0" startPos="0.406573176142" endPos="30.4065731761" name="Johannes-Selenka-Platz Pos. 11" friendlyPos="true" />
    <busStop id="39811" lane="4526596#0_0" startPos="173.093568727" endPos="203.093568727" name="Sch?nebergstra?e Pos. 11" friendlyPos="true" />
    <busStop id="18211" lane="31000149_0" startPos="0.0" endPos="30.0" name="Heesfeld Pos. 11" friendlyPos="true" />
    <busStop id="17912" lane="334152813#3_0" startPos="23.1401411562" endPos="53.1401411562" name="Hauptfriedhof Pos. 12" friendlyPos="true" />
    <busStop id="29611" lane="27031985#7_0" startPos="0.0" endPos="30.0" name="M?wenweg Pos. 11" friendlyPos="true" />
    <busStop id="31512" lane="307200571_0" startPos="0.294217208122" endPos="30.2942172081" name="Hintern Br?dern Pos. 12" friendlyPos="true" />
    <busStop id="29612" lane="-27031985#6_0" startPos="14.486519775" endPos="44.486519775" name="M?wenweg Pos. 12" friendlyPos="true" />
    <busStop id="2011" lane="4839225#0_0" startPos="0.0" endPos="30.0" name="Am B?lten Pos. 11" friendlyPos="true" />
    <busStop id="2012" lane="511268005_0" startPos="0.0" endPos="30.0" name="Am B?lten Pos. 12" friendlyPos="true" />
    <busStop id="44112" lane="-625070025#1_0" startPos="0.0" endPos="30.0" name="Waller Weg Pos. 12" friendlyPos="true" />
    <busStop id="44111" lane="-625070025#1_0" startPos="11.8307238825" endPos="41.8307238825" name="Waller Weg Pos. 11" friendlyPos="true" />
    <busStop id="17711" lane="-361120213#5_0" startPos="368.822475339" endPos="398.822475339" name="Hauptbahnhof S?d Pos. 11" friendlyPos="true" />
    <busStop id="36412" lane="499546685_0" startPos="0.0" endPos="30.0" name="Klinikum Salzdahlumer Str. Pos. 12" friendlyPos="true" />
    <busStop id="18212" lane="31000149_0" startPos="0.0" endPos="30.0" name="Heesfeld Pos. 12" friendlyPos="true" />
    <busStop id="10112" lane="28385144#0_0" startPos="650.421838109" endPos="680.421838109" name="Dedekindstra?e Pos. 12" friendlyPos="true" />
    <busStop id="36411" lane="-323957163_0" startPos="132.696106156" endPos="162.696106156" name="Klinikum Salzdahlumer Str. Pos. 11" friendlyPos="true" />
    <busStop id="10111" lane="-223096653#3_0" startPos="250.081765634" endPos="280.081765634" name="Dedekindstra?e Pos. 11" friendlyPos="true" />
    <busStop id="15212" lane="-25290640_0" startPos="55.6628170146" endPos="85.6628170146" name="Goslarsche Stra?e Pos. 12" friendlyPos="true" />
    <busStop id="15211" lane="106531547#0_0" startPos="12.076279866" endPos="42.076279866" name="Goslarsche Stra?e Pos. 11" friendlyPos="true" />
    <busStop id="42111" lane="106531541#0_0" startPos="47.9345689394" endPos="77.9345689394" name="Tuckermannstra?e Pos. 11" friendlyPos="true" />
    <busStop id="42112" lane="-106531541#3_0" startPos="140.445517359" endPos="170.445517359" name="Tuckermannstra?e Pos. 12" friendlyPos="true" />
    <busStop id="36112" lane="-380290359#1_0" startPos="419.147388315" endPos="449.147388315" name="Saarplatz Pos. 12" friendlyPos="true" />
    <busStop id="19411" lane="-317365380#1_0" startPos="12.6699317019" endPos="42.6699317019" name="Hochstra?e Pos. 11" friendlyPos="true" />
    <busStop id="19412" lane="659392075_0" startPos="0.0" endPos="30.0" name="Hochstra?e Pos. 12" friendlyPos="true" />
    <busStop id="36111" lane="380290359#0_0" startPos="0.0" endPos="30.0" name="Saarplatz Pos. 11" friendlyPos="true" />
    <busStop id="36114" lane="-121228319#4_0" startPos="0.0" endPos="30.0" name="Saarplatz Pos. 14" friendlyPos="true" />
    <busStop id="32311" lane="-5640229#6_0" startPos="18.1415359212" endPos="48.1415359212" name="Pappelallee Pos. 11" friendlyPos="true" />
    <busStop id="32312" lane="5640229#3_0" startPos="99.8517500991" endPos="129.851750099" name="Pappelallee Pos. 12" friendlyPos="true" />
    <busStop id="9011" lane="319192876#3_0" startPos="261.387766051" endPos="291.387766051" name="Klinikum Celler Stra?e Pos. 11" friendlyPos="true" />
    <busStop id="9012" lane="374169546#0_0" startPos="133.682826285" endPos="163.682826285" name="Klinikum Celler Stra?e Pos. 12" friendlyPos="true" />
    <busStop id="7912" lane="-600204868_0" startPos="8.04001901165" endPos="38.0400190117" name="Katholischer Friedhof Pos. 12" friendlyPos="true" />
    <busStop id="62611" lane="8430611#0_0" startPos="50.143684725" endPos="80.143684725" name="Raabestra?e Pos. 11" friendlyPos="true" />
    <busStop id="62612" lane="-8430611#1_0" startPos="35.3891394495" endPos="65.3891394495" name="Raabestra?e Pos. 12" friendlyPos="true" />
    <busStop id="35111" lane="89805251#0_0" startPos="224.940006118" endPos="254.940006118" name="Rh?nweg Pos. 11" friendlyPos="true" />
    <busStop id="5312" lane="191883896#0_0" startPos="0.0" endPos="30.0" name="Daimlerstra?e Pos. 12" friendlyPos="true" />
    <busStop id="5311" lane="511308690_0" startPos="30.2996527656" endPos="60.2996527656" name="Daimlerstra?e Pos. 11" friendlyPos="true" />
    <busStop id="13612" lane="-334902538_0" startPos="466.260920206" endPos="496.260920206" name="Friedrich-Seele-Stra?e Pos. 12" friendlyPos="true" />
    <busStop id="25611" lane="-610211148#1_0" startPos="9.58475579518" endPos="39.5847557952" name="Kremsweg Pos. 11" friendlyPos="true" />
    <busStop id="25612" lane="26185379#0_0" startPos="0.0" endPos="30.0" name="Kremsweg Pos. 12" friendlyPos="true" />
    <chargingStation id="7" chargeDelay="2" chargeInTransit="1" power="200000" efficiency="0.95" endPos="84.0114795899" lane="32353233#0_0" startPos="54.0114795899" friendlyPos="true" />
    <busStop id="21112" lane="-334902539#1_0" startPos="65.4400691062" endPos="95.4400691062" name="Im Seumel Pos. 12" friendlyPos="true" />
    <busStop id="21111" lane="334902539#0_0" startPos="0.0" endPos="30.0" name="Im Seumel Pos. 11" friendlyPos="true" />
    <busStop id="13011" lane="23329778#2_0" startPos="165.358959555" endPos="195.358959555" name="Europaplatz Pos. 11" friendlyPos="true" />
    <busStop id="64111" lane="8588233#2_0" startPos="74.9254319222" endPos="104.925431922" name="Ziegelwiese Pos. 11" friendlyPos="true" />
    <busStop id="40211" lane="-23201670#0_0" startPos="31.3271599038" endPos="61.3271599038" name="Steintor Pos. 11" friendlyPos="true" />
    <busStop id="40212" lane="5059203_0" startPos="1.51905853117" endPos="31.5190585312" name="Steintor Pos. 12" friendlyPos="true" />
    <busStop id="64112" lane="-8588233#3_0" startPos="0.0" endPos="30.0" name="Ziegelwiese Pos. 12" friendlyPos="true" />
    <busStop id="39412" lane="-171756596_0" startPos="7.52401033289" endPos="37.5240103329" name="Staatstheater Pos. 12" friendlyPos="true" />
    <busStop id="39411" lane="171756596_0" startPos="5.68244600061" endPos="35.6824460006" name="Staatstheater Pos. 11" friendlyPos="true" />
    <busStop id="28411" lane="334902539#2_0" startPos="208.884011261" endPos="238.884011261" name="Marienberger Stra?e Pos. 11" friendlyPos="true" />
    <busStop id="28412" lane="-334902539#9_0" startPos="68.846225701" endPos="98.846225701" name="Marienberger Stra?e Pos. 12" friendlyPos="true" />
    <busStop id="32812" lane="24857829#0_0" startPos="8.72410265993" endPos="38.7241026599" name="Petristra?e Pos. 12" friendlyPos="true" />
    <busStop id="16712" lane="-30766035_0" startPos="4.15024047885" endPos="34.1502404789" name="Hahnenkleestra?e Pos. 12" friendlyPos="true" />
    <busStop id="16711" lane="313800998_0" startPos="0.0" endPos="30.0" name="Hahnenkleestra?e Pos. 11" friendlyPos="true" />
    <busStop id="5911" lane="5059000#0_0" startPos="4.23184715575" endPos="34.2318471557" name="Bahnhof Gliesmarode Pos. 11" friendlyPos="true" />
    <busStop id="27312" lane="-171266171#0_0" startPos="0.0" endPos="30.0" name="Zollkamp Pos. 12" friendlyPos="true" />
    <busStop id="27311" lane="313800996_0" startPos="17.9986164353" endPos="47.9986164353" name="Zollkamp Pos. 11" friendlyPos="true" />
    <busStop id="511" lane="511308724#0_0" startPos="226.346993171" endPos="256.346993171" name="Adam-Opel-Stra?e Pos. 11" friendlyPos="true" />
    <busStop id="57211" lane="25644376#0_0" startPos="12.8660815202" endPos="42.8660815202" name="Gewerbegebiet Bastholz Ost Pos. 11" friendlyPos="true" />
    <busStop id="57212" lane="-25644376#1_0" startPos="61.0324200865" endPos="91.0324200865" name="Gewerbegebiet Bastholz Ost Pos. 12" friendlyPos="true" />
    <busStop id="37211" lane="33199416#4_0" startPos="92.6990780463" endPos="122.699078046" name="Schlesierweg Pos. 11" friendlyPos="true" />
    <busStop id="34511" lane="266103100#0_0" startPos="14.4004202571" endPos="44.4004202571" name="Reitlingstra?e Pos. 11" friendlyPos="true" />
    <busStop id="34512" lane="335369962_0" startPos="8.11298634393" endPos="38.1129863439" name="Reitlingstra?e Pos. 12" friendlyPos="true" />
    <busStop id="30011" lane="5021504_0" startPos="27.7617991556" endPos="57.7617991556" name="M?nzstra?e Pos. 11" friendlyPos="true" />
    <busStop id="18112" lane="35572821#1_0" startPos="0.0" endPos="30.0" name="Havelstra?e Pos. 12" friendlyPos="true" />
    <busStop id="41911" lane="266107853#1_0" startPos="0.0" endPos="30.0" name="Triftstra?e Pos. 11" friendlyPos="true" />
    <busStop id="41912" lane="-40040222_0" startPos="145.316054312" endPos="175.316054312" name="Triftstra?e Pos. 12" friendlyPos="true" />
    <busStop id="18111" lane="-549105303#4_0" startPos="30.9426322075" endPos="60.9426322075" name="Havelstra?e Pos. 11" friendlyPos="true" />
    <busStop id="8112" lane="-68789816#2_0" startPos="105.844155088" endPos="135.844155088" name="Westbahnhof Pos. 12" friendlyPos="true" />
    <busStop id="39912" lane="30773325#1_0" startPos="15.8740413691" endPos="45.8740413691" name="Donnerbleek Pos. 12" friendlyPos="true" />
    <busStop id="39911" lane="-30773325#0_0" startPos="8.12321085686" endPos="38.1232108569" name="Donnerbleek Pos. 11" friendlyPos="true" />
    <busStop id="8111" lane="-68789816#2_0" startPos="75.3651221368" endPos="105.365122137" name="Westbahnhof Pos. 11" friendlyPos="true" />
    <busStop id="60011" lane="-254286676#2_0" startPos="4.04986663388" endPos="34.0498666339" name="Vincent-van-Gogh-Ring Pos. 11" friendlyPos="true" />
    <busStop id="60012" lane="254286676#0_0" startPos="183.917454342" endPos="213.917454342" name="Vincent-van-Gogh-Ring Pos. 12" friendlyPos="true" />
    <busStop id="7711" lane="-611114548#2_0" startPos="182.244757106" endPos="212.244757106" name="Breitenhop Pos. 11" friendlyPos="true" />
    <busStop id="7712" lane="625075014#1_0" startPos="0.0" endPos="30.0" name="Breitenhop Pos. 12" friendlyPos="true" />
    <busStop id="11011" lane="173278277#0_0" startPos="672.241604544" endPos="702.241604544" name="Dorflage Pos. 11" friendlyPos="true" />
    <busStop id="11012" lane="173278276#2_0" startPos="12.7904871311" endPos="42.7904871311" name="Dorflage Pos. 12" friendlyPos="true" />