<?xml version="1.0" encoding="UTF-8"?>

<!-- generated on Mo 14 Dez 2020 22:07:16 CET by Eclipse SUMO netedit Version v1_8_0+0144-36c9cb9b80
<configuration xmlns:xsi="http://www.w3.org/2001/XMLSchema-instance" xsi:noNamespaceSchemaLocation="http://sumo.dlr.de/xsd/netconvertConfiguration.xsd">

    <input>
        <sumo-net-file value="osm.net.xml"/>
    </input>

    <output>
        <output-file value="osm.net.xml"/>
        <output.street-names value="true"/>
    </output>

    <processing>
        <geometry.min-radius.fix.railways value="false"/>
        <geometry.max-grade.fix value="false"/>
        <offset.disable-normalization value="true"/>
        <lefthand value="false"/>
    </processing>

    <junctions>
        <no-turnarounds value="true"/>
        <junctions.corner-detail value="5"/>
        <junctions.limit-turn-speed value="5.5"/>
        <rectangular-lane-cut value="false"/>
    </junctions>

    <pedestrian>
        <walkingareas value="false"/>
    </pedestrian>

    <netedit>
        <additional-files value="/home/behr_mi/sumo-scenarios/brunswick/cut.add.xml"/>
    </netedit>

    <report>
        <aggregate-warnings value="5"/>
    </report>

</configuration>
-->

<additional xmlns:xsi="http://www.w3.org/2001/XMLSchema-instance" xsi:noNamespaceSchemaLocation="http://sumo.dlr.de/xsd/additional_file.xsd">
    <poly id="poly_0" color="blue" fill="0" layer="128.00" shape="2000,99500 2000,40000 95000,40000.0 95000,99500 2000,99500"/>
    <poi id="BAB_Nord_Ein_35011392" color="green" lat="52.577917" lon="9.773351"/>
    <poi id="BAB_Nord_Aus_332893825" color="red" lat="52.577959" lon="9.773665"/>
    <poi id="B_N_147712900" color="yellow" lat="52.575623" lon="10.077048"/>
    <poi id="B_N_533481897" color="yellow" lat="52.577637" lon="10.124718"/>
    <poi id="B_N_165150580" color="yellow" lat="52.561877" lon="10.508189"/>
    <poi id="B_N_26333717" color="yellow" lat="52.553846" lon="10.786744"/>
    <poi id="B_N_128531852" color="yellow" lat="52.549993" lon="10.913045"/>

    <poi id="B_O_259276852" color="yellow" lat="52.444477" lon="10.973302"/>
    <poi id="B_O_140044518" color="yellow" lat="52.332652" lon="10.967542"/>
    <poi id="B_O_239134670" color="yellow" lat="52.226025" lon="10.962043"/>
    <poi id="B_O_311877744" color="yellow" lat="52.141228" lon="10.960944"/>
    <poi id="BAB_A2_Ost_Ein_270367431" color="green" lat="52.268945" lon="10.964286"/>
    <poi id="BAB_A2_Ost_Aus_270367419" color="red" lat="52.268658" lon="10.964237"/>

    <poi id="B_S_29086492#1" color="yellow" lat="52.030369" lon="10.892314"/>
    <poi id="B_S_78071471" color="yellow" lat="52.032261" lon="10.769611"/>
    <poi id="B_S_372475953" color="yellow" lat="52.044457" lon="10.615080"/>
    <poi id="BAB_Sued_Ein_332880784" color="green" lat="52.035800" lon="10.515806"/>
    <poi id="BAB_Sued_Aus_332880775" color="red" lat="52.035818" lon="10.515582"/>
    <poi id="BAB_Sued_Ein_367304903" color="green" lat="52.037788" lon="10.355783"/>
    <poi id="BAB_Sued_Aus_238218009" color="red" lat="52.037785" lon="10.355600"/>
    <poi id="BAB_Sued_Ein_83397465" color="green" lat="52.039692" lon="10.177562"/>
    <poi id="BAB_Sued_Aus_332669323" color="red" lat="52.039672" lon="10.177200"/>
    <poi id="B_S_397782238" color="yellow" lat="52.040604" lon="10.084263"/>
    <poi id="B_S_182135986" color="yellow" lat="52.043147" lon="9.759795"/>
    <poi id="B_S_858608969" color="yellow" lat="52.043516" lon="9.693768"/>

    <poi id="B_W_45060238#1" color="yellow" lat="52.084158" lon="9.601223"/>
    <poi id="BAB_West_Ein_373587106" color="green" lat="52.216941" lon="9.602887"/>
    <poi id="BAB_West_Aus_30281615#0" color="red" lat="52.217008" lon="9.602903"/>
    <poi id="B_W_238110551" color="yellow" lat="52.333117" lon="9.606223"/>
    <poi id="B_W_722930595" color="yellow" lat="52.388326" lon="9.605230"/>
    <poi id="BAB_A2_West_Ein_25427143" color="green" lat="52.422420" lon="9.605661"/>
    <poi id="BAB_A2_West_Aus_270484560" color="red" lat="52.422643" lon="9.605681"/>
    <poi id="B_W_253778630#0" color="yellow" lat="52.431602" lon="9.610513"/>
</additional>
