<additional>
    <edgeData id="sim_bike" file="meandata_sim_flows.xml" edges="178028204#9 -178028204#9 -147053824#2 147053824#2"/>
</additional>
