<additional>
    <edgeData id="sim_cars" file="meandata_sim_cars.xml" edges="178028204#9 -178028204#9 -147053824#2 147053824#2"/>
</additional>
