<?xml version="1.0" encoding="UTF-8"?>

<!-- generated on 2023-06-01 16:01:57 by Eclipse SUMO netedit Version v1_17_0+0611-19e794c0a97
-->

<routes xmlns:xsi="http://www.w3.org/2001/XMLSchema-instance" xsi:noNamespaceSchemaLocation="http://sumo.dlr.de/xsd/routes_file.xsd">
    <!-- VTypes -->
    <vType id="t_0"/>
    <!-- Vehicles, persons and containers (sorted by depart) -->
    <flow id="f_0" type="t_0" begin="50300" end="54100" vehsPerHour="240.00">
        <route edges="-E0 11389403#1 11389403#2 11389403#3 147053824#1 147053824#2 147053824#3 147053824#4 147053824#5 1072269113 1072269112#0 178028203#1 178028203#2 178028204#1 178028204#3 178028204#4 178028204#9 166142947#1 152839426 -152839428 45875465 679901152#0 40191607#2"/>
    </flow>
    <flow id="f_1" type="t_0" begin="50300" end="54100" vehsPerHour="20.00">
        <route edges="-11391856#2 147053824#1 147053824#2 147053824#3 147053824#4 147053824#5 1072269113 1072269112#0 178028203#1 178028203#2 178028204#1 178028204#3 178028204#4 178028204#9 166142947#1 152839426 -187123053#6 -187123053#5 -187123053#4 -187123053#3 -187123053#0"/>
    </flow>
    <flow id="f_10" begin="50300" end="54100" number="60">
        <route edges="153021549#1 1102336903#0 40191606 414563781 318210357#0 -679901152#1 -45875465 152839428 -152839426 -166142947#1 -178028204#9 -178028204#4 -178028204#3 -178028204#1 -178028203#2 -178028203#1 -1072269112#0 -1072269113 -147053824#5 -140964910#3 -140964910#2 -140964910#1 -25771472#1"/>
    </flow>
    <flow id="f_11" begin="50300" end="54100" number="125">
        <route edges="318210357#0 -679901152#1 -45875465 152839428 -152839426 -166142947#1 -178028204#9 -178028204#4 -178028204#3 -178028204#1 -178028203#2 -178028203#1 -1072269112#0 -1072269113 -147053824#5 -147053824#4 -147053824#3 -147053824#2 -147053824#1 -11389403#3 -11389403#2 -11389403#1 E0"/>
    </flow>
    <flow id="f_12" begin="50300" end="54100" number="40">
        <route edges="976351540#1 52036180#5 -679901152#1 -45875465 152839428 -152839426 -166142947#1 -178028204#9 -178028204#4 -178028204#3 -178028204#1 -178028203#2 -178028203#1 -1072269112#0 -19589130#4 -19589130#3 -19589130#2 -19585417#1"/>
    </flow>
    <flow id="f_13" begin="50300" end="54100" number="26">
        <route edges="20553068#0 20553068#1 20553068#2 20553068#3 -178028204#9 -178028204#4 -178028204#3 -178028204#1 -178028203#2 -178028203#1 -1072269112#0 -1072269113 -147053824#5 -147053824#4 -147053824#3 -147053824#2 -147053824#1 11391856#2 23913522#0 23913522#1 -23913522#1 -23913522#0"/>
    </flow>
    <flow id="f_14" begin="50300" end="54100" number="26">
        <route edges="318210354#0 -679901152#1 -45875465 152839428 -152839426 -166142947#1 -178028204#9 -178028204#4 -178028204#3 -178028204#1 -178028203#2 -178028203#1 -1072269112#0 -1072269113 140964907#1 140964907#2 140964907#3 -25771472#0 137534616 1066222296#0 1066222296#1 1066221786 1066221582 166142951#0 166142951#1"/>
    </flow>
    <flow id="f_2" type="t_0" begin="50300" end="54100" vehsPerHour="15.00">
        <route edges="19589130#4 1072269112#0 178028203#1 178028203#2 178028204#1 178028204#3 178028204#4 178028204#9 166142947#1 152839426 -152839428 45875465 679901152#0 72230304#1 461514282#0 461514282#1"/>
    </flow>
    <flow id="f_3" type="t_0" begin="50300" end="54100" vehsPerHour="50.00">
        <route edges="11389403#2 11389403#3 147053824#1 147053824#2 147053824#3 147053824#4 147053824#5 1072269113 1072269112#0 178028203#1 178028203#2 178028204#1 178028204#3 178028204#4 23913525#0 23913525#1 23913525#4"/>
    </flow>
    <flow id="f_4" type="t_0" begin="50300" end="54100" vehsPerHour="40.00">
        <route edges="-11391856#2 147053824#1 147053824#2 147053824#3 147053824#4 147053824#5 1072269113 1072269112#0 178028203#1 178028203#2 178028204#1 178028204#3 -23788323 -1066222296#0"/>
    </flow>
    <flow id="f_5" type="t_0" begin="50300" end="54100" number="60">
        <route edges="11389403#2 11389403#3 147053824#1 147053824#2 147053824#3 147053824#4 147053824#5 1072269113 1072269112#0 178028203#1 178028203#2 178028204#1 178028204#3 178028204#4 23913525#0 23913525#1 -140964905#8 -140964905#5 20553007#1"/>
    </flow>
    <flow id="f_6" type="t_0" begin="50300" end="54100" number="45">
        <route edges="-11391856#2 147053824#1 147053824#2 147053824#3 147053824#4 147053824#5 1072269113 1072269112#0 178028203#1 178028203#2 149611534#0 149611534#1 -137534616 25771472#0 25771472#1"/>
    </flow>
    <flow id="f_7" begin="50300" end="54100" number="25">
        <route edges="-19585417#0 -11391856#3 -11391856#2 147053824#1 147053824#2 147053824#3 147053824#4 147053824#5 1072269113 1072269112#0 20554351 20554168 178028206#1 178028206#2 178028204#1 178028204#3 178028204#4 23913525#0 23913525#1 23913525#4"/>
    </flow>
    <flow id="f_8" begin="50300" end="54100" number="25">
        <route edges="-E0 11389403#1 11389403#2 11389403#3 147053824#1 147053824#2 147053824#3 147053824#4 147053824#5 1072269113 1072269112#0 178028203#1 178028203#2 178028204#1 178028204#3 178028204#4 23913525#0 23913525#1 -140964905#8 -140964905#5 -140964905#2 40191607#4 40191607#5"/>
    </flow>
    <flow id="f_9" begin="50300" end="54100" number="200">
        <route edges="52036180#5 -679901152#1 -45875465 152839428 -152839426 -166142947#1 -178028204#9 -140964924 -1066222296#1 -1066222296#0 -137534616 25771472#0 25771472#1 25771472#2 35554229#0"/>
    </flow>
</routes>
