<?xml version="1.0" encoding="UTF-8"?>

<!-- generated on 2023-06-01 11:25:42.308397 by randomTrips.py v1_17_0+0611-19e794c0a97
<configuration>
    <net-file value="net.net.xml.gz"/>
    <route-file value="osm.passenger.rou.xml"/>
    <prefix value="veh"/>
    <trip-attributes value="departLane=&quot;best&quot;"/>
    <fringe-start-attributes value="departSpeed=&quot;max&quot;"/>
    <begin value="50400.0"/>
    <end value="54000.0"/>
    <length value="True"/>
    <lanes value="True"/>
    <fringe-factor value="10"/>
    <allow-fringe.min-length value="1000.0"/>
    <min-distance value="300.0"/>
    <vehicle-class value="passenger"/>
    <validate value="True"/>
    <period value="6.0"/>
</configuration>
-->

<!-- generated on 2023-06-01 11:25:42 by Eclipse SUMO duarouter Version v1_17_0+0611-19e794c0a97
<configuration xmlns:xsi="http://www.w3.org/2001/XMLSchema-instance" xsi:noNamespaceSchemaLocation="http://sumo.dlr.de/xsd/duarouterConfiguration.xsd">

    <input>
        <net-file value="net.net.xml.gz"/>
        <route-files value="trips.trips.xml"/>
    </input>

    <output>
        <output-file value="osm.passenger.rou.xml"/>
        <alternatives-output value="NUL"/>
    </output>

    <time>
        <begin value="50400.0"/>
        <end value="54000.0"/>
    </time>

    <report>
        <no-warnings value="true"/>
        <ignore-errors value="true"/>
        <no-step-log value="true"/>
    </report>

</configuration>
-->

<routes xmlns:xsi="http://www.w3.org/2001/XMLSchema-instance" xsi:noNamespaceSchemaLocation="http://sumo.dlr.de/xsd/routes_file.xsd">
    <vType id="veh_passenger" vClass="passenger"/>
    <vehicle id="veh0" type="veh_passenger" depart="50400.00" departLane="best" departSpeed="max">
        <route edges="153021549#0 153021549#1 1102336903#0 40191606 414563781 318210357#0 -679901152#1 -45875465 152839428 -187123053#6 -187123053#5 -187123053#4 -187123053#3 -187123053#0"/>
    </vehicle>
    <vehicle id="veh1" type="veh_passenger" depart="50406.00" departLane="best" departSpeed="max">
        <route edges="-23925122#1 23925119#3 40191606 414563781 318210357#0 40191607#2 40191607#3 40191607#4 40191607#5 40191607#6 20552644#2"/>
    </vehicle>
    <vehicle id="veh2" type="veh_passenger" depart="50412.00" departLane="best">
        <route edges="318210355 318210354#0 72230304#1 461514282#0 461514282#1"/>
    </vehicle>
    <vehicle id="veh3" type="veh_passenger" depart="50418.00" departLane="best" departSpeed="max">
        <route edges="-E0 11389403#1 11389403#2 11389403#3 147053824#1 147053824#2 147053824#3 147053824#4 147053824#5 1072269113 1072269112#0 178028203#1 178028203#2 178028204#1 178028204#3 178028204#4 178028204#9 166142947#1 152839426 -187123053#6 -187123053#5 -187123053#4 -187123053#3 -187123053#0"/>
    </vehicle>
    <vehicle id="veh4" type="veh_passenger" depart="50424.00" departLane="best" departSpeed="max">
        <route edges="-23913525#4 -23913525#1 -23913525#0 178028204#9 166142947#1 152839426 -152839428 45875465 679901152#0 206889086#1 152839448#0 541676219 318210389#0 142575672#2 142575672#4 318210373#0 318210373#1 318210373#3"/>
    </vehicle>
    <vehicle id="veh5" type="veh_passenger" depart="50430.00" departLane="best">
        <route edges="153021549#1 1102336903#0 40191606 414563781 318210357#0 206889086#1 152839448#0 541676219 318210389#0 52080655#1 318210394"/>
    </vehicle>
    <vehicle id="veh6" type="veh_passenger" depart="50436.00" departLane="best" departSpeed="max">
        <route edges="-23913525#4 -23913525#1 -23913525#0 178028204#9 166142947#1 152839426 -152839428 45875465 679901152#0 206889086#1 152839448#0 541676219 318210389#0 52080655#1 318210394"/>
    </vehicle>
    <vehicle id="veh7" type="veh_passenger" depart="50442.00" departLane="best" departSpeed="max">
        <route edges="61422979#1 20554204#2 20554204#3 178028206#1 178028206#2 178028204#1 178028204#3 178028204#4 -140964924"/>
    </vehicle>
    <vehicle id="veh8" type="veh_passenger" depart="50448.00" departLane="best" departSpeed="max">
        <route edges="61422979#1 20554204#2 20554204#3 178028206#1 178028206#2 178028204#1 178028204#3 178028204#4 178028204#9 166142947#1 152839426 -152839428 45875465 679901152#0 72230304#1 461514282#0 461514282#1"/>
    </vehicle>
    <vehicle id="veh9" type="veh_passenger" depart="50454.00" departLane="best" departSpeed="max">
        <route edges="61422979#1 20554204#2 20554204#3 178028206#1 178028206#2 178028204#1 178028204#3 178028204#4 178028204#9 166142947#1 152839426 -152839428 45875465 679901152#0 72230304#1 461514282#0 461514282#1"/>
    </vehicle>
    <vehicle id="veh10" type="veh_passenger" depart="50460.00" departLane="best" departSpeed="max">
        <route edges="143308549#0 976351540#1 52036180#5 -679901152#1 -45875465 152839428 -152839426 -166142947#1 -178028204#9 -178028204#4 -178028204#3 -178028204#1 -178028203#2 -178028203#1 -1072269112#0 -1072269113 -147053824#5 -147053824#4 -147053824#3 -147053824#2 -147053824#1 -11389403#3 -11389403#2 -11389403#1 E0"/>
    </vehicle>
    <vehicle id="veh11" type="veh_passenger" depart="50466.00" departLane="best" departSpeed="max">
        <route edges="822124413#0 822124413#1 318210358 318210355 318210354#0 72230304#1 461514282#0 461514282#1"/>
    </vehicle>
    <vehicle id="veh12" type="veh_passenger" depart="50472.00" departLane="best" departSpeed="max">
        <route edges="153021549#0 153021549#1 -149611526#1 -149611526#0 -166142951#1 -166142951#0 -1066221582 -1066221787 -1066222296#1 -1066222296#0 -137534616 25771472#0 -140964907#3 -140964907#2 -140964907#1 -147053824#5 -147053824#4 -147053824#3 -147053824#2 -147053824#1 11391856#2 23913522#0 23913522#1"/>
    </vehicle>
    <vehicle id="veh13" type="veh_passenger" depart="50478.00" departLane="best" departSpeed="max">
        <route edges="-23913525#4 -23913525#1 -23913525#0 178028204#9 166142947#1 152839426 -152839428 45875465 679901152#0 206889086#1 152839448#0 541676219 318210389#0 670062912#1"/>
    </vehicle>
    <vehicle id="veh14" type="veh_passenger" depart="50484.00" departLane="best" departSpeed="max">
        <route edges="153021549#0 153021549#1 1102336903#0 40191606 414563781 318210357#0 206889086#1 152839448#0 541676219 318210389#0 52080655#1 318210394"/>
    </vehicle>
    <vehicle id="veh15" type="veh_passenger" depart="50490.00" departLane="best" departSpeed="max">
        <route edges="-23913522#1 -23913522#0 -11391856#2 147053824#1 147053824#2 147053824#3 147053824#4 147053824#5 1072269113 1072269112#0 178028203#1 178028203#2 178028204#1 178028204#3 178028204#4 178028204#9 166142947#1 152839426 -152839428 45875465 679901152#0 72230304#1 461514282#0 461514282#1"/>
    </vehicle>
    <vehicle id="veh16" type="veh_passenger" depart="50496.00" departLane="best" departSpeed="max">
        <route edges="822124413#0 822124413#1 318210358 318210355 318210354#0 72230304#1 461514282#0 461514282#1"/>
    </vehicle>
    <vehicle id="veh17" type="veh_passenger" depart="50502.00" departLane="best" departSpeed="max">
        <route edges="822124413#0 822124413#1 318210358 318210355 318210354#0 72230304#1 461514282#0 461514282#1"/>
    </vehicle>
    <vehicle id="veh18" type="veh_passenger" depart="50508.00" departLane="best" departSpeed="max">
        <route edges="-318210373#3 -318210373#1 -318210373#0 -142575672#4 -142575672#3 976351540#1 52036180#5 40191607#2 40191607#3 140964905#2 20553007#1"/>
    </vehicle>
    <vehicle id="veh19" type="veh_passenger" depart="50514.00" departLane="best" departSpeed="max">
        <route edges="-23913525#4 -23913525#1 -23913525#0 178028204#9 166142947#1 152839426 -152839428 45875465 679901152#0 206889086#1 152839448#0 541676219 318210389#0 670062912#1"/>
    </vehicle>
    <vehicle id="veh20" type="veh_passenger" depart="50520.00" departLane="best" departSpeed="max">
        <route edges="822124413#0 822124413#1 318210358 318210355 318210354#0 40191607#2 40191607#3 140964905#2 140964905#5 140964905#8 23913525#4"/>
    </vehicle>
    <vehicle id="veh21" type="veh_passenger" depart="50526.00" departLane="best" departSpeed="max">
        <route edges="153021549#0 153021549#1 1102336903#0 40191606 414563781 318210357#0 40191607#2 40191607#3 140964905#2 20553007#1"/>
    </vehicle>
    <vehicle id="veh22" type="veh_passenger" depart="50532.00" departLane="best" departSpeed="max">
        <route edges="153021549#0 153021549#1 1102336903#0 40191606 414563781 318210357#0 206889086#1 152839448#0 541676219 318210389#0 670062912#1"/>
    </vehicle>
    <vehicle id="veh23" type="veh_passenger" depart="50538.00" departLane="best" departSpeed="max">
        <route edges="-318210394 -52080655#2 976351540#1 52036180#5 40191607#2 40191607#3 40191607#4 40191607#5 40191607#6 20552644#2"/>
    </vehicle>
    <vehicle id="veh24" type="veh_passenger" depart="50544.00" departLane="best" departSpeed="max">
        <route edges="822124413#0 822124413#1 318210358 318210355 318210354#0 206889086#1 152839448#0 541676219 318210389#0 142575672#2 142575672#4 318210373#0 318210373#1 318210373#3"/>
    </vehicle>
    <vehicle id="veh25" type="veh_passenger" depart="50550.00" departLane="best" departSpeed="max">
        <route edges="-20553007#1 140964905#5 187123053#3 187123053#4 187123053#5 187123053#6 -152839428 45875465 679901152#0 72230304#1 461514282#0 461514282#1"/>
    </vehicle>
    <vehicle id="veh26" type="veh_passenger" depart="50556.00" departLane="best" departSpeed="max">
        <route edges="-20553007#1 140964905#5 187123053#3 187123053#4 187123053#5 187123053#6 -152839426 -166142947#1 -178028204#9 -178028204#4 -178028204#3 -178028204#1 -178028203#2 -178028203#1 -1072269112#0 -1072269113 -147053824#5 -147053824#4 -147053824#3 -147053824#2 -147053824#1 11391856#2 23913522#0 23913522#1"/>
    </vehicle>
    <vehicle id="veh27" type="veh_passenger" depart="50562.00" departLane="best" departSpeed="max">
        <route edges="822124413#0 822124413#1 318210358 318210355 318210354#0 206889086#1 152839448#0 541676219 318210389#0 670062912#1"/>
    </vehicle>
    <vehicle id="veh28" type="veh_passenger" depart="50568.00" departLane="best" departSpeed="max">
        <route edges="-142575695#3 -142575695#2 -142575695#1 -142575672#3 976351540#1 52036180#5 72230304#1 461514282#0 461514282#1"/>
    </vehicle>
    <vehicle id="veh29" type="veh_passenger" depart="50574.00" departLane="best" departSpeed="max">
        <route edges="187123033#1 187123053#3 187123053#4 187123053#5 187123053#6 -152839428 45875465 679901152#0 206889086#1 152839448#0 541676219 318210389#0 52080655#1 318210394"/>
    </vehicle>
    <vehicle id="veh30" type="veh_passenger" depart="50580.00" departLane="best" departSpeed="max">
        <route edges="-23913525#4 -23913525#1 -23913525#0 178028204#9 166142947#1 152839426 -152839428 45875465 679901152#0 72230304#1 461514282#0 461514282#1"/>
    </vehicle>
    <vehicle id="veh31" type="veh_passenger" depart="50586.00" departLane="best" departSpeed="max">
        <route edges="-E0 11389403#1 11389403#2 11389403#3 147053824#1 147053824#2 147053824#3 147053824#4 147053824#5 1072269113 1072269112#0 178028203#1 178028203#2 178028204#1 178028204#3 178028204#4 178028204#9 166142947#1 152839426 -152839428 45875465 679901152#0 206889086#1 152839448#0 541676219 318210389#0 670062912#1"/>
    </vehicle>
    <vehicle id="veh32" type="veh_passenger" depart="50592.00" departLane="best" departSpeed="max">
        <route edges="822124413#0 822124413#1 318210358 318210355 318210354#0 206889086#1 152839448#0 541676219 318210389#0 670062912#1"/>
    </vehicle>
    <vehicle id="veh33" type="veh_passenger" depart="50598.00" departLane="best" departSpeed="max">
        <route edges="-23925122#1 23925119#3 40191606 414563781 318210357#0 72230304#1 461514282#0 461514282#1"/>
    </vehicle>
    <vehicle id="veh34" type="veh_passenger" depart="50604.00" departLane="best" departSpeed="max">
        <route edges="153021549#0 153021549#1 1102336903#0 40191606 414563781 318210357#0 -679901152#1 -45875465 152839428 -152839426 -166142947#1 -178028204#9 -178028204#4 -178028204#3 -178028204#1 -178028203#2 -178028203#1 20554351 178028209#1 515064249 20554335 20554204#0 20554204#1 -61422979#1"/>
    </vehicle>
    <vehicle id="veh35" type="veh_passenger" depart="50610.00" departLane="best" departSpeed="max">
        <route edges="61422979#1 20554204#2 20554204#3 178028206#1 178028206#2 178028204#1 178028204#3 178028204#4 178028204#9 166142947#1 152839426 -152839428 45875465 679901152#0 206889086#1 152839448#0 541676219 318210389#0 52080655#1 318210394"/>
    </vehicle>
    <vehicle id="veh36" type="veh_passenger" depart="50616.00" departLane="best" departSpeed="max">
        <route edges="61422979#1 20554204#2 20554204#3 178028206#1 178028206#2 178028204#1 178028204#3 178028204#4 178028204#9 166142947#1 152839426 -152839428 45875465 679901152#0 206889086#1 152839448#0 541676219 318210389#0 52080655#1 318210394"/>
    </vehicle>
    <vehicle id="veh37" type="veh_passenger" depart="50622.00" departLane="best">
        <route edges="-1066222296#1 1066222296#1 1066221786 1066221582 166142951#0 166142951#1 149611526#0 149611526#1 1102336903#0 40191606 414563781 318210357#0 40191607#2 40191607#3 140964905#2 20553007#1"/>
    </vehicle>
    <vehicle id="veh38" type="veh_passenger" depart="50628.00" departLane="best" departSpeed="max">
        <route edges="822124413#0 822124413#1 318210358 318210355 318210354#0 206889086#1 152839448#0 541676219 318210389#0 670062912#1"/>
    </vehicle>
    <vehicle id="veh39" type="veh_passenger" depart="50634.00" departLane="best" departSpeed="max">
        <route edges="-23925122#1 23925119#3 40191606 414563781 318210357#0 -679901152#1 -45875465 152839428 -187123053#6 -187123053#5 -187123053#4 -187123053#3 -187123053#0"/>
    </vehicle>
    <vehicle id="veh40" type="veh_passenger" depart="50640.00" departLane="best" departSpeed="max">
        <route edges="822124413#0 822124413#1 318210358 318210355 318210354#0 206889086#1 152839448#0 541676219 318210389#0 670062912#1"/>
    </vehicle>
    <vehicle id="veh41" type="veh_passenger" depart="50646.00" departLane="best" departSpeed="max">
        <route edges="-20553007#1 140964905#5 187123053#3 187123053#4 187123053#5 187123053#6 -152839428 45875465 679901152#0 206889086#1 152839448#0 541676219 318210389#0 142575672#2 142575672#4 318210373#0 318210373#1 318210373#3"/>
    </vehicle>
    <vehicle id="veh42" type="veh_passenger" depart="50652.00" departLane="best" departSpeed="max">
        <route edges="-20553007#1 140964905#5 187123053#3 187123053#4 187123053#5 187123053#6 -152839428 45875465 679901152#0 72230304#1 461514282#0 461514282#1"/>
    </vehicle>
    <vehicle id="veh43" type="veh_passenger" depart="50658.00" departLane="best" departSpeed="max">
        <route edges="-23913525#4 -23913525#1 -23913525#0 178028204#9 166142947#1 152839426 -152839428 45875465 679901152#0 206889086#1 152839448#0 541676219 318210389#0 670062912#1"/>
    </vehicle>
    <vehicle id="veh44" type="veh_passenger" depart="50664.00" departLane="best" departSpeed="max">
        <route edges="-E0 11389403#1 11389403#2 11389403#3 147053824#1 147053824#2 147053824#3 147053824#4 147053824#5 1072269113 1072269112#0 178028203#1 178028203#2 178028204#1 178028204#3 178028204#4 178028204#9"/>
    </vehicle>
    <vehicle id="veh45" type="veh_passenger" depart="50670.00" departLane="best">
        <route edges="148803147#3 1093549448#2 20553444 -35554229#1 -35554229#0 -25771472#2 -25771472#1 -25771472#0 137534616 1066222296#0 1066222296#1 1066221786 1066221582 166142951#0 166142951#1 149611526#0 149611526#1 1102336903#0 40191606 414563781 318210357#0 72230304#1 461514282#0 461514282#1"/>
    </vehicle>
    <vehicle id="veh46" type="veh_passenger" depart="50676.00" departLane="best" departSpeed="max">
        <route edges="822124413#0 822124413#1 318210358 318210355 318210354#0 72230304#1 461514282#0 461514282#1"/>
    </vehicle>
    <vehicle id="veh47" type="veh_passenger" depart="50682.00" departLane="best" departSpeed="max">
        <route edges="-E0 11389403#1 11389403#2 11389403#3 147053824#1 147053824#2 147053824#3 147053824#4 147053824#5 1072269113 1072269112#0 178028203#1 178028203#2 178028204#1 178028204#3 178028204#4 178028204#9 166142947#1 152839426 -152839428 45875465 679901152#0 206889086#1 152839448#0 541676219 318210389#0 142575672#2 142575672#4 318210373#0 318210373#1 318210373#3"/>
    </vehicle>
    <vehicle id="veh48" type="veh_passenger" depart="50688.00" departLane="best" departSpeed="max">
        <route edges="-318210373#3 -318210373#1 -318210373#0 -142575672#4 -142575672#3 52080655#1 318210394"/>
    </vehicle>
    <vehicle id="veh49" type="veh_passenger" depart="50694.00" departLane="best" departSpeed="max">
        <route edges="-20553007#1 140964905#5 187123053#3 187123053#4 187123053#5 187123053#6 -152839428 45875465 679901152#0 72230304#1 461514282#0 461514282#1"/>
    </vehicle>
    <vehicle id="veh50" type="veh_passenger" depart="50700.00" departLane="best" departSpeed="max">
        <route edges="-23913525#4 -23913525#1 -23913525#0 178028204#9 166142947#1 152839426 -152839428 45875465 679901152#0 206889086#1 152839448#0 541676219 318210389#0 670062912#1"/>
    </vehicle>
    <vehicle id="veh51" type="veh_passenger" depart="50706.00" departLane="best" departSpeed="max">
        <route edges="-23913525#4 -23913525#1 -23913525#0 178028204#9 166142947#1 152839426 -152839428 45875465 679901152#0 72230304#1 461514282#0 461514282#1"/>
    </vehicle>
    <vehicle id="veh52" type="veh_passenger" depart="50712.00" departLane="best" departSpeed="max">
        <route edges="143308549#0 976351540#1 52036180#5 72230304#1 461514282#0 461514282#1"/>
    </vehicle>
    <vehicle id="veh53" type="veh_passenger" depart="50718.00" departLane="best" departSpeed="max">
        <route edges="61422979#1 20554204#2 20554204#3 178028206#1 178028206#2 178028204#1 178028204#3 178028204#4 178028204#9 166142947#1 152839426 -152839428 45875465 679901152#0 206889086#1 152839448#0 541676219 318210389#0 142575672#2 142575695#1 142575695#2 142575695#3"/>
    </vehicle>
    <vehicle id="veh54" type="veh_passenger" depart="50724.00" departLane="best" departSpeed="max">
        <route edges="-E0 11389403#1 11389403#2 11389403#3 147053824#1 147053824#2 147053824#3 147053824#4 147053824#5 1072269113 1072269112#0 178028203#1 178028203#2 178028204#1 178028204#3 178028204#4 23913525#0 23913525#1 23913525#4"/>
    </vehicle>
    <vehicle id="veh55" type="veh_passenger" depart="50730.00" departLane="best">
        <route edges="20554204#1 20554204#2 20554204#3 178028206#1 178028206#2 178028204#1 178028204#3 178028204#4 178028204#9 166142947#1 152839426 -152839428 45875465 679901152#0 72230304#1 461514282#0 461514282#1"/>
    </vehicle>
    <vehicle id="veh56" type="veh_passenger" depart="50736.00" departLane="best" departSpeed="max">
        <route edges="-318210394 -52080655#2 976351540#1 52036180#5 40191607#2 40191607#3 140964905#2 20553007#1"/>
    </vehicle>
    <vehicle id="veh57" type="veh_passenger" depart="50742.00" departLane="best" departSpeed="max">
        <route edges="-23913522#1 -23913522#0 -11391856#2 147053824#1 147053824#2 147053824#3 147053824#4 147053824#5 1072269113 1072269112#0 178028203#1 178028203#2 178028204#1 178028204#3 178028204#4 23913525#0 23913525#1 23913525#4"/>
    </vehicle>
    <vehicle id="veh58" type="veh_passenger" depart="50748.00" departLane="best" departSpeed="max">
        <route edges="-E0 11389403#1 11389403#2 11389403#3 147053824#1 147053824#2 147053824#3 147053824#4 147053824#5 1072269113 1072269112#0 178028203#1 178028203#2 178028204#1 178028204#3 178028204#4 178028204#9 166142947#1 152839426 -152839428 45875465 679901152#0 40191607#2 40191607#3 140964905#2 20553007#1"/>
    </vehicle>
    <vehicle id="veh59" type="veh_passenger" depart="50754.00" departLane="best" departSpeed="max">
        <route edges="-23913525#4 -23913525#1 -23913525#0 178028204#9 166142947#1 152839426 -152839428 45875465 679901152#0 206889086#1 152839448#0 541676219 318210389#0 670062912#1"/>
    </vehicle>
    <vehicle id="veh60" type="veh_passenger" depart="50760.00" departLane="best" departSpeed="max">
        <route edges="-E0 11389403#1 11389403#2 11389403#3 147053824#1 147053824#2 147053824#3 147053824#4 147053824#5 1072269113 1072269112#0 178028203#1 178028203#2 178028204#1 178028204#3 178028204#4 178028204#9 166142947#1 152839426 -152839428 45875465 679901152#0 206889086#1 152839448#0 541676219 318210389#0 670062912#1"/>
    </vehicle>
    <vehicle id="veh61" type="veh_passenger" depart="50766.00" departLane="best" departSpeed="max">
        <route edges="153021549#0 153021549#1 1102336903#0 40191606 414563781 318210357#0 -679901152#1 -45875465 152839428 -187123053#6 -187123053#5 -187123053#4 -187123053#3 -187123053#0"/>
    </vehicle>
    <vehicle id="veh62" type="veh_passenger" depart="50772.00" departLane="best" departSpeed="max">
        <route edges="822124413#0 822124413#1 318210358 318210355 318210354#0 206889086#1 152839448#0 541676219 318210389#0 670062912#1"/>
    </vehicle>
    <vehicle id="veh63" type="veh_passenger" depart="50778.00" departLane="best" departSpeed="max">
        <route edges="822124413#0 822124413#1 318210358 318210355 318210354#0 206889086#1 152839448#0 541676219 318210389#0 670062912#1"/>
    </vehicle>
    <vehicle id="veh64" type="veh_passenger" depart="50784.00" departLane="best" departSpeed="max">
        <route edges="822124413#0 822124413#1 318210358 318210355 318210354#0 206889086#1 152839448#0 541676219 318210389#0 142575672#2 142575695#1 142575695#2 142575695#3"/>
    </vehicle>
    <vehicle id="veh65" type="veh_passenger" depart="50790.00" departLane="best" departSpeed="max">
        <route edges="143308549#0 976351540#1 52036180#5 -679901152#1 -45875465 152839428 -152839426 -166142947#1 -178028204#9 -178028204#4 -178028204#3 -178028204#1 -178028203#2 -178028203#1 -1072269112#0 -1072269113 -147053824#5 -147053824#4 -147053824#3 -147053824#2 -147053824#1 11391856#2 11391856#3 19585417#0"/>
    </vehicle>
    <vehicle id="veh66" type="veh_passenger" depart="50796.00" departLane="best" departSpeed="max">
        <route edges="-318210394 -52080655#2 976351540#1 52036180#5 -679901152#1 -45875465 152839428 -187123053#6 -187123053#5 -187123053#4 -187123053#3 -187123053#0"/>
    </vehicle>
    <vehicle id="veh67" type="veh_passenger" depart="50802.00" departLane="best" departSpeed="max">
        <route edges="-318210394 -52080655#2 976351540#1 52036180#5 -679901152#1 -45875465 152839428 -152839426 -166142947#1 -178028204#9 -178028204#4 -178028204#3 -178028204#1 -178028203#2 -178028203#1 -1072269112#0 -1072269113 -147053824#5 -147053824#4 -147053824#3 -147053824#2 -147053824#1 -11389403#3 -11389403#2 -11389403#1 E0"/>
    </vehicle>
    <vehicle id="veh68" type="veh_passenger" depart="50808.00" departLane="best" departSpeed="max">
        <route edges="-23913525#4 -23913525#1 -23913525#0 178028204#9 166142947#1 152839426 -152839428 45875465 679901152#0 72230304#1 461514282#0 461514282#1"/>
    </vehicle>
    <vehicle id="veh69" type="veh_passenger" depart="50814.00" departLane="best" departSpeed="max">
        <route edges="-E0 11389403#1 11389403#2 11389403#3 147053824#1 147053824#2 147053824#3 147053824#4 147053824#5 1072269113 1072269112#0 178028203#1 178028203#2 178028204#1 178028204#3 178028204#4 23913525#0 23913525#1 23913525#4"/>
    </vehicle>
    <vehicle id="veh70" type="veh_passenger" depart="50820.00" departLane="best" departSpeed="max">
        <route edges="822124413#0 822124413#1 318210358 318210355 318210354#0 -679901152#1 -45875465 152839428 -152839426 -166142947#1 -178028204#9 -178028204#4 -178028204#3 -178028204#1 -178028203#2 -178028203#1 -1072269112#0 -1072269113 -147053824#5 -147053824#4 -147053824#3 -147053824#2 -147053824#1 -11389403#3 -11389403#2 -11389403#1 E0"/>
    </vehicle>
    <vehicle id="veh71" type="veh_passenger" depart="50826.00" departLane="best" departSpeed="max">
        <route edges="-23913522#1 -23913522#0 -11391856#2 147053824#1 147053824#2 147053824#3 147053824#4 147053824#5 1072269113 1072269112#0 178028203#1 178028203#2 178028204#1 178028204#3 178028204#4 178028204#9 166142947#1 152839426 -152839428 45875465 679901152#0 40191607#2 40191607#3 140964905#2 20553007#1"/>
    </vehicle>
    <vehicle id="veh72" type="veh_passenger" depart="50832.00" departLane="best" departSpeed="max">
        <route edges="-20553007#1 140964905#5 187123053#3 187123053#4 187123053#5 187123053#6 -152839428 45875465 679901152#0 206889086#1 152839448#0 541676219 318210389#0 52080655#1 318210394"/>
    </vehicle>
    <vehicle id="veh73" type="veh_passenger" depart="50838.00" departLane="best" departSpeed="max">
        <route edges="-23913522#1 -23913522#0 -11391856#2 -11389403#3 -11389403#2 -11389403#1 E0"/>
    </vehicle>
    <vehicle id="veh74" type="veh_passenger" depart="50844.00" departLane="best" departSpeed="max">
        <route edges="-20553007#1 140964905#5 187123053#3 187123053#4 187123053#5 187123053#6 -152839428 45875465 679901152#0 206889086#1 152839448#0 541676219 318210389#0 142575672#2 142575695#1 142575695#2 142575695#3"/>
    </vehicle>
    <vehicle id="veh75" type="veh_passenger" depart="50850.00" departLane="best">
        <route edges="-35554226#2 -35554226#1 147053824#4 147053824#5 1072269113 1072269112#0 178028203#1 178028203#2 178028204#1 178028204#3 178028204#4 178028204#9 166142947#1 152839426 -152839428 45875465 679901152#0 206889086#1 152839448#0 541676219 318210389#0 52080655#1 318210394"/>
    </vehicle>
    <vehicle id="veh76" type="veh_passenger" depart="50856.00" departLane="best" departSpeed="max">
        <route edges="-23913525#4 -23913525#1 -23913525#0 178028204#9 166142947#1 152839426 -152839428 45875465 679901152#0 72230304#1 461514282#0 461514282#1"/>
    </vehicle>
    <vehicle id="veh77" type="veh_passenger" depart="50862.00" departLane="best" departSpeed="max">
        <route edges="-318210373#3 -318210373#1 -318210373#0 -142575672#4 -142575672#3 976351540#1 52036180#5 72230304#1 461514282#0 461514282#1"/>
    </vehicle>
    <vehicle id="veh78" type="veh_passenger" depart="50868.00" departLane="best" departSpeed="max">
        <route edges="822124413#0 822124413#1 318210358 318210355 318210354#0 -679901152#1 -45875465 152839428 -152839426 -166142947#1 -178028204#9 -178028204#4 -178028204#3 -178028204#1 -178028203#2 -178028203#1 -1072269112#0 -1072269113 -147053824#5 -147053824#4 -147053824#3 -147053824#2 -147053824#1 -11389403#3 -11389403#2 -11389403#1 E0"/>
    </vehicle>
    <vehicle id="veh79" type="veh_passenger" depart="50874.00" departLane="best" departSpeed="max">
        <route edges="-23913525#4 -23913525#1 -23913525#0 178028204#9 166142947#1 152839426 -152839428 45875465 679901152#0 206889086#1 152839448#0 541676219 318210389#0 670062912#1"/>
    </vehicle>
    <vehicle id="veh80" type="veh_passenger" depart="50880.00" departLane="best" departSpeed="max">
        <route edges="822124413#0 822124413#1 318210358 318210355 318210354#0 206889086#1 152839448#0 541676219 318210389#0 670062912#1"/>
    </vehicle>
    <vehicle id="veh81" type="veh_passenger" depart="50886.00" departLane="best" departSpeed="max">
        <route edges="-318210394 -52080655#2 976351540#1 52036180#5 40191607#2 40191607#3 140964905#2 140964905#5 140964905#8"/>
    </vehicle>
    <vehicle id="veh82" type="veh_passenger" depart="50892.00" departLane="best" departSpeed="max">
        <route edges="822124413#0 822124413#1 318210358 318210355 318210354#0 72230304#1 461514282#0 461514282#1"/>
    </vehicle>
    <vehicle id="veh83" type="veh_passenger" depart="50898.00" departLane="best" departSpeed="max">
        <route edges="153021549#0 153021549#1 -149611526#1 -149611526#0 -166142951#1 -166142951#0 -1066221582 -1066221787 -1066222296#1 -1066222296#0 -137534616 25771472#0 -140964907#3 -140964907#2 -140964907#1 -147053824#5 -147053824#4 -147053824#3 -147053824#2 -147053824#1 -11389403#3 -11389403#2 -11389403#1 E0"/>
    </vehicle>
    <vehicle id="veh84" type="veh_passenger" depart="50904.00" departLane="best" departSpeed="max">
        <route edges="187123033#1 187123053#3 187123053#4 187123053#5 187123053#6 -152839426 -166142947#1 -178028204#9 -178028204#4 -178028204#3 -178028204#1 -178028203#2 -178028203#1 -1072269112#0 -1072269113 -147053824#5 -147053824#4 -147053824#3 -146511475#0"/>
    </vehicle>
    <vehicle id="veh85" type="veh_passenger" depart="50910.00" departLane="best" departSpeed="max">
        <route edges="61422979#1 20554204#2 20554204#3 178028206#1 178028206#2 178028204#1 178028204#3 178028204#4 178028204#9 166142947#1 152839426 -152839428 45875465 679901152#0 40191607#2 40191607#3 140964905#2 20553007#1"/>
    </vehicle>
    <vehicle id="veh86" type="veh_passenger" depart="50916.00" departLane="best" departSpeed="max">
        <route edges="187123033#1 187123053#3 187123053#4 187123053#5 187123053#6 -152839428 45875465 679901152#0 206889086#1 152839448#0 541676219 318210389#0 670062912#1"/>
    </vehicle>
    <vehicle id="veh87" type="veh_passenger" depart="50922.00" departLane="best" departSpeed="max">
        <route edges="-23913522#1 -23913522#0 -11391856#2 147053824#1 147053824#2 147053824#3 147053824#4 147053824#5 1072269113 1072269112#0 20554351 178028209#1 515064249 20554335 20554204#0 20554204#1 -61422979#1"/>
    </vehicle>
    <vehicle id="veh88" type="veh_passenger" depart="50928.00" departLane="best" departSpeed="max">
        <route edges="-20553007#1 140964905#5 187123053#3 187123053#4 187123053#5 187123053#6 -152839428 45875465 679901152#0 206889086#1 152839448#0 541676219 318210389#0 52080655#1 318210394"/>
    </vehicle>
    <vehicle id="veh89" type="veh_passenger" depart="50934.00" departLane="best" departSpeed="max">