<?xml version="1.0" encoding="UTF-8"?>

<!-- generated on 2023-06-10 11:27:42 by Eclipse SUMO netedit Version v1_17_0+0871-1d9458f9fa0
-->

<routes xmlns:xsi="http://www.w3.org/2001/XMLSchema-instance" xsi:noNamespaceSchemaLocation="http://sumo.dlr.de/xsd/routes_file.xsd">
    <!-- Vehicles, persons and containers (sorted by depart) -->
    <vehicle id="v_0" depart="14:00:00">
        <route edges="318210357#0 -679901152#1 -45875465 -152839426 -178028204#9 -178028204#4 -23788323"/> <!--Post-->
        <stop lane="-152839426_1" startPos="27.76" endPos="37.76" duration="250.00"/>
    </vehicle>
    <vehicle id="v_1" depart="14:05:00"> <!--Post-->
        <route edges="52036180#5 -679901152#1 -45875465 -152839426 -178028204#9 -178028204#4 -178028204#3 -178028203#2 -178028203#1 -1072269112#0 -1072269113 140964907#1"/>
        <stop lane="-178028204#9_1" startPos="53.18" endPos="63.18" duration="65.00"/>
    </vehicle>
	<vehicle id="v_2" depart="14:10:00"> <!--Post-->
        <route edges="318210357#0 -679901152#1 -45875465 -152839426 -178028204#9 -178028204#4 -23788323"/> <!--Post-->
        <stop lane="-152839426_1" startPos="27.76" endPos="37.76" duration="250.00"/>
    </vehicle>
	
    <vehicle id="v_3" depart="14:10:00"> <!--Asia-->
        <route edges="318210354#0 -679901152#1 -45875465 -152839426 -178028204#9 -178028204#4 -178028204#3 -178028203#2 -178028203#1 -1072269112#0 -1072269113 -147053824#5 -140964910#3"/>
        <stop lane="-1072269112#0_1" startPos="52.01" endPos="62.01" duration="240.00"/>
    </vehicle>
	<vehicle id="v_4" depart="14:15:00"> <!--Post-->
        <route edges="318210357#0 -679901152#1 -45875465 -152839426 -178028204#9 -178028204#4 -23788323"/> <!--Post-->
        <stop lane="-152839426_1" startPos="27.76" endPos="37.76" duration="300.00"/>
    </vehicle>
	<vehicle id="v_5" depart="14:15:00"> <!--Fotoladen-->
        <route edges="-23913525#1 -23913525#0 178028204#9 166142947#1 -152839428 679901152#0 40191607#2"/>
        <stop lane="178028204#9_1" startPos="43.56" endPos="53.56" duration="120.00"/>
    </vehicle>
	<vehicle id="v_6" depart="14:15:00"> <!--Bäcker-->
        <route edges="11389403#3 147053824#1 147053824#2 147053824#3 -140964927#4"/>
        <stop lane="147053824#2_1" startPos="26.04" endPos="36.04" duration="120.00"/>
    </vehicle>
	<vehicle id="v_7" depart="14:25:00"> <!--Asia-->
        <route edges="318210354#0 -679901152#1 -45875465 -152839426 -178028204#9 -178028204#4 -178028204#3 -178028203#2 -178028203#1 -1072269112#0 -1072269113 -147053824#5 -140964910#3"/>
        <stop lane="-1072269112#0_1" startPos="52.01" endPos="62.01" duration="300.00"/>
    </vehicle>
	<vehicle id="v_8" depart="14:28:00"> <!--Post-->
        <route edges="318210357#0 -679901152#1 -45875465 -152839426 -178028204#9 -178028204#4 -23788323"/> <!--Post-->
        <stop lane="-152839426_1" startPos="27.76" endPos="37.76" duration="240.00"/>
    </vehicle>
	
    <vehicle id="v_9" depart="14:30:00"> <!--Asisa-->
        <route edges="-23913525#0 -178028204#4 -178028204#3 -178028203#2 -178028203#1 -1072269112#0 -1072269113 -147053824#5 -147053824#4 -147053824#3 -147053824#2 -147053824#1 -11389403#3"/>
        <stop lane="-1072269112#0_1" startPos="31.27" endPos="41.27" duration="120.00"/>
    </vehicle>
	<vehicle id="v_10" depart="14:33:00"> <!--Post-->
        <route edges="318210357#0 -679901152#1 -45875465 -152839426 -178028204#9 -178028204#4 -23788323"/> <!--Post-->
        <stop lane="-152839426_1" startPos="27.76" endPos="37.76" duration="240.00"/>
    </vehicle>
	<vehicle id="v_11" depart="14:39:00"> <!--Asisa-->
        <route edges="-23913525#0 -178028204#4 -178028204#3 -178028203#2 -178028203#1 -1072269112#0 -1072269113 -147053824#5 -147053824#4 -147053824#3 -147053824#2 -147053824#1 -11389403#3"/>
        <stop lane="-1072269112#0_1" startPos="31.27" endPos="41.27" duration="120.00"/>
    </vehicle>
	<vehicle id="v_12" depart="14:40:00"> <!--Post-->
        <route edges="318210357#0 -679901152#1 -45875465 -152839426 -178028204#9 -178028204#4 -23788323"/> <!--Post-->
        <stop lane="-152839426_1" startPos="27.76" endPos="37.76" duration="120.00"/>
    </vehicle>
    <vehicle id="v_13" depart="14:45:00"> <!--Bäcker-->
        <route edges="11389403#3 147053824#1 147053824#2 147053824#3 -140964927#4"/>
        <stop lane="147053824#2_1" startPos="26.04" endPos="36.04" duration="120.00"/>
    </vehicle>
	<vehicle id="v_14" depart="14:49:00"> <!--Asisa-->
        <route edges="-23913525#0 -178028204#4 -178028204#3 -178028203#2 -178028203#1 -1072269112#0 -1072269113 -147053824#5 -147053824#4 -147053824#3 -147053824#2 -147053824#1 -11389403#3"/>
        <stop lane="-1072269112#0_1" startPos="31.27" endPos="41.27" duration="120.00"/>
    </vehicle>
    <vehicle id="v_15" depart="14:50:00"> <!--Fotoladen-->
        <route edges="-23913525#1 -23913525#0 178028204#9 166142947#1 -152839428 679901152#0 40191607#2"/>
        <stop lane="178028204#9_1" startPos="43.56" endPos="53.56" duration="120.00"/>
    </vehicle>
</routes>
