<?xml version="1.0" encoding="UTF-8"?>

<!-- generated on 2023-05-11 18:13:59 by Eclipse SUMO netedit Version v1_17_0+0172-8b68beeaf46
-->

<routes xmlns:xsi="http://www.w3.org/2001/XMLSchema-instance" xsi:noNamespaceSchemaLocation="http://sumo.dlr.de/xsd/routes_file.xsd">
    <!-- VTypes -->
    <vType id="t_0" vClass="delivery"/>
    <vType id="t_1" vClass="truck"/>
   
    <!-- Vehicles, persons and containers (sorted by depart) -->
    <vehicle id="v_0" type="t_0" depart="14:12:00"> <!--Post-->
        <route edges="318210357#0 -679901152#1 -45875465 152839428 -152839426 -166142947#1 -178028204#9 -178028204#4 -178028204#3 -178028204#1 -178028203#2 -178028203#1 -1072269112#0 -1072269113 -147053824#5 -147053824#4 -147053824#3 -147053824#2 -147053824#1 -11389403#3"/>
        <stop lane="-178028204#9_1" startPos="10.06" endPos="20.06" duration="600.00"/>
    </vehicle>
    <vehicle id="v_1" type="t_1" depart="14:17:00"> <!--Aisa-->
        <route edges="318210354#0 -679901152#1 -45875465 152839428 -152839426 -166142947#1 -178028204#9 -178028204#4 -178028204#3 -178028204#1 -178028203#2 -178028203#1 -1072269112#0 -1072269113 140964907#1"/>
        <stop lane="-178028204#9_1" startPos="39.80" endPos="49.80" duration="520.00"/>
    </vehicle>
    <vehicle id="v_2" type="t_0" depart="14:30:00"> <!--Post-->
        <route edges="-679901152#1 -45875465 152839428 -152839426 -166142947#1 -178028204#9 -178028204#4 -178028204#3 -178028204#1 -178028203#2 -178028203#1 -1072269112#0 -1072269113 -147053824#5 -147053824#4 -147053824#3 -147053824#2 -147053824#1 -11389403#3"/>
        <stop lane="-1072269112#0_1" startPos="25.19" endPos="35.19" duration="300.00"/>
    </vehicle>
	<vehicle id="v2" type="t_0" depart="14:45:00.00"> <!--Post-->
        <route edges="-679901152#1 -45875465 152839428 -152839426 -166142947#1 -178028204#9 -178028204#4 -178028204#3 -178028204#1 -178028203#2 -178028203#1 -1072269112#0 -1072269113 -147053824#5 -147053824#4 -147053824#3 -147053824#2 -147053824#1 -11389403#3"/>
        <stop lane="-1072269112#0_1" startPos="25.19" endPos="35.19" duration="240.00"/>
    </vehicle>
	<vehicle id="v01" type="t_0" depart="14:45:00"> <!--Aisa-->
        <route edges="318210354#0 -679901152#1 -45875465 152839428 -152839426 -166142947#1 -178028204#9 -178028204#4 -178028204#3 -178028204#1 -178028203#2 -178028203#1 -1072269112#0 -1072269113 140964907#1"/>
        <stop lane="-178028204#9_1" startPos="39.80" endPos="49.80" duration="150.00"/>
    </vehicle>
	<vehicle id="v03" type="t_0" depart="14:55:00"> <!--Post-->
        <route edges="-679901152#1 -45875465 152839428 -152839426 -166142947#1 -178028204#9 -178028204#4 -178028204#3 -178028204#1 -178028203#2 -178028203#1 -1072269112#0 -1072269113 -147053824#5 -147053824#4 -147053824#3 -147053824#2 -147053824#1 -11389403#3"/>
        <stop lane="-1072269112#0_1" startPos="25.19" endPos="35.19" duration="120.00"/>
    </vehicle>
	
</routes>
