<?xml version="1.0" encoding="UTF-8"?>

<!-- generated on 2023-05-11 13:25:25 by Eclipse SUMO netedit Version v1_17_0+0224-bd9d1f7a5d5
-->

<routes xmlns:xsi="http://www.w3.org/2001/XMLSchema-instance" xsi:noNamespaceSchemaLocation="http://sumo.dlr.de/xsd/routes_file.xsd">
	
    <!-- Vehicles, persons and containers (sorted by depart) -->
    <vehicle id="1" depart="14:00:00" color="cyan"> <!--Post-->
        <route edges="24152326#0 24152326#1 -20553015#1 -20553015#0 20553068#1 20553068#2 20553068#3 -178028204#9 23913525#0"/>
        <stop lane="-178028204#9_1" startPos="9.63" endPos="19.63" duration="300.00"/>
    </vehicle>
	<vehicle id="2" depart="14:05:00" color="cyan"> <!--Post-->
        <route edges="24152326#0 24152326#1 -20553015#1 -20553015#0 20553068#1 20553068#2 20553068#3 -178028204#9 23913525#0"/>
        <stop lane="-178028204#9_1" startPos="9.63" endPos="19.63" duration="65.00"/>
    </vehicle>
	<vehicle id="3" depart="14:05:00" color="cyan"> <!--Post-->
        <route edges="24152326#0 24152326#1 -20553015#1 -20553015#0 20553068#1 20553068#2 20553068#3 -178028204#9 23913525#0"/>
        <stop lane="-178028204#9_1" startPos="9.63" endPos="19.63" duration="240.00"/>
    </vehicle>
	
	<vehicle id="4" depart="14:05:00" color="cyan"> <!--Asia-->
        <route edges="52036180#5 -679901152#1 -45875465 152839428 -152839426 -166142947#1 -178028204#9 -178028204#4 -178028204#3 -178028204#1 -178028203#2 -178028203#1 -1072269112#0 -1072269113 -147053824#5 -140964910#3"/>
        <stop lane="-1072269112#0_1" startPos="34.11" endPos="44.11" duration="240.00" friendlyPos="1"/>
    </vehicle>
	
	<vehicle id="5" depart="14:06:00" color="red"> <!--Fotoladen-->
        <route edges="-23913525#0 178028204#9 166142947#1 152839426 -152839428 45875465 679901152#0 40191607#2"/>
        <stop lane="178028204#9_1" startPos="10.76" endPos="20.76" duration="300.00"/>
    </vehicle>
	<vehicle id="6" depart="14:10:00" color="yellow"> <!--Bäcker hinten-->
        <route edges="147053824#2 147053824#3 147053824#4 147053824#5 1072269113 1072269112#0 178028203#1 178028203#2 178028204#1 178028204#3 178028204#4 23913525#0"/>
        <stop lane="147053824#2_1" startPos="59.37" endPos="69.37" duration="240.00"/>
    </vehicle>
	<vehicle id="7" depart="14:12:00" color="cyan"> <!--Post-->
        <route edges="24152326#0 24152326#1 -20553015#1 -20553015#0 20553068#1 20553068#2 20553068#3 -178028204#9 23913525#0"/>
        <stop lane="-178028204#9_1" startPos="9.63" endPos="19.63" duration="200.00"/>
	</vehicle>
	<vehicle id="8" depart="14:13:00" color="cyan"> <!--Asia-->
        <route edges="52036180#5 -679901152#1 -45875465 152839428 -152839426 -166142947#1 -178028204#9 -178028204#4 -178028204#3 -178028204#1 -178028203#2 -178028203#1 -1072269112#0 -1072269113 -147053824#5 -140964910#3"/>
        <stop lane="-1072269112#0_1" startPos="34.11" endPos="44.11" duration="600.00" friendlyPos="1"/>
    </vehicle>
	<vehicle id="9" depart="14:17:00" color="cyan"> <!--Post-->
        <route edges="24152326#0 24152326#1 -20553015#1 -20553015#0 20553068#1 20553068#2 20553068#3 -178028204#9 23913525#0"/>
        <stop lane="-178028204#9_1" startPos="9.63" endPos="19.63" duration="300.00"/>
	</vehicle>
	
	<vehicle id="10" depart="14:20:00" color="cyan"> <!--Asia-->
        <route edges="23788323 -178028204#3 -178028204#1 -178028203#2 -178028203#1 -1072269112#0 -1072269113 -147053824#5 -147053824#4 -147053824#3 -147053824#2 -147053824#1 -11389403#3"/>
        <stop lane="-1072269112#0_1" startPos="9.67" endPos="19.67" duration="300.00"/>
    </vehicle>
	<vehicle id="11" depart="14:23:00" color="cyan"> <!--Post-->
        <route edges="24152326#0 24152326#1 -20553015#1 -20553015#0 20553068#1 20553068#2 20553068#3 -178028204#9 23913525#0"/>
        <stop lane="-178028204#9_1" startPos="9.63" endPos="19.63" duration="360.00"/>
	</vehicle>
	<vehicle id="12" depart="14:30:00" color="yellow"> <!--Bäcker hinten-->
        <route edges="147053824#2 147053824#3 147053824#4 147053824#5 1072269113 1072269112#0 178028203#1 178028203#2 178028204#1 178028204#3 178028204#4 23913525#0"/>
        <stop lane="147053824#2_1" startPos="59.37" endPos="69.37" duration="120.00"/>
    </vehicle>
	
	<vehicle id="13" depart="14:31:00" color="cyan"> <!--Post-->
        <route edges="24152326#0 24152326#1 -20553015#1 -20553015#0 20553068#1 20553068#2 20553068#3 -178028204#9 23913525#0"/>
        <stop lane="-178028204#9_1" startPos="9.63" endPos="19.63" duration="300.00"/>
	</vehicle>
	<vehicle id="14" depart="14:32:00" color="cyan"> <!--Asia-->
        <route edges="52036180#5 -679901152#1 -45875465 152839428 -152839426 -166142947#1 -178028204#9 -178028204#4 -178028204#3 -178028204#1 -178028203#2 -178028203#1 -1072269112#0 -1072269113 -147053824#5 -140964910#3"/>
        <stop lane="-1072269112#0_1" startPos="34.11" endPos="44.11" duration="300.00" friendlyPos="1"/>
    </vehicle>
	<vehicle id="15" depart="14:35:00" color="cyan"> <!--Post-->
        <route edges="24152326#0 24152326#1 -20553015#1 -20553015#0 20553068#1 20553068#2 20553068#3 -178028204#9 23913525#0"/>
        <stop lane="-178028204#9_1" startPos="9.63" endPos="19.63" duration="600.00"/>
	</vehicle>
	
	<vehicle id="16" depart="14:41:00" color="cyan"> <!--Post-->
        <route edges="24152326#0 24152326#1 -20553015#1 -20553015#0 20553068#1 20553068#2 20553068#3 -178028204#9 23913525#0"/>
        <stop lane="-178028204#9_1" startPos="9.63" endPos="19.63" duration="300.00"/>
    </vehicle>
	<vehicle id="17" depart="14:42:00" color="cyan"> <!--Post-->
        <route edges="24152326#0 24152326#1 -20553015#1 -20553015#0 20553068#1 20553068#2 20553068#3 -178028204#9 23913525#0"/>
        <stop lane="-178028204#9_1" startPos="9.63" endPos="19.63" duration="600.00"/>
    </vehicle>
	<vehicle id="18" depart="14:42:00" color="cyan"> <!--Asia-->
        <route edges="52036180#5 -679901152#1 -45875465 152839428 -152839426 -166142947#1 -178028204#9 -178028204#4 -178028204#3 -178028204#1 -178028203#2 -178028203#1 -1072269112#0 -1072269113 -147053824#5 -140964910#3"/>
        <stop lane="-1072269112#0_1" startPos="34.11" endPos="44.11" duration="600.00" friendlyPos="1"/>
    </vehicle>
	
    
	<vehicle id="19" depart="14:52:00" color="cyan"> <!--Post-->
        <route edges="24152326#0 24152326#1 -20553015#1 -20553015#0 20553068#1 20553068#2 20553068#3 -178028204#9 23913525#0"/>
        <stop lane="-178028204#9_1" startPos="9.63" endPos="19.63" duration="120.00"/>
    </vehicle>
	
	<vehicle id="20" depart="14:55:00" color="cyan"> <!--Post-->
        <route edges="24152326#0 24152326#1 -20553015#1 -20553015#0 20553068#1 20553068#2 20553068#3 -178028204#9 23913525#0"/>
        <stop lane="-178028204#9_1" startPos="9.63" endPos="19.63" duration="120.00"/>
    </vehicle>
	
	<vehicle id="21" depart="14:55:00" color="red"> <!--Fotoladen-->
        <route edges="-23913525#0 178028204#9 166142947#1 152839426 -152839428 45875465 679901152#0 40191607#2"/>
        <stop lane="178028204#9_1" startPos="10.76" endPos="20.76" duration="200.00"/>
    </vehicle>
</routes>
