<?xml version="1.0" encoding="UTF-8"?>

<!-- generated on 2023-07-07 13:52:36.123703 by routeSampler.py v1_18_0+0000-03ecfdea036
<configuration>
    <route-files value="osm.bicycle.rou.xml"/>
    <turn-ratio-files value="turn_ratio.xml"/>
    <edgedata-files value="edge_data_bike.xml"/>
    <turn-ratio-attribute value="ratio"/>
    <output-file value="samplertrips_bike.rou.xml"/>
    <mismatch-output value="mismatch_bike.xml"/>
    <prefix value="b"/>
    <attributes value="type=&quot;bicycle&quot;"/>
</configuration>
-->

<routes xmlns:xsi="http://www.w3.org/2001/XMLSchema-instance" xsi:noNamespaceSchemaLocation="http://sumo.dlr.de/xsd/routes_file.xsd">
<!-- begin="50300.0" end="54100.0" -->
    <vehicle id="b0" depart="50300.00" type="bicycle">
        <route edges="-147053824#4 -140964927#4 -23913523#3 -23913523#2 754032233"/>
    </vehicle>
    <vehicle id="b1" depart="50307.77" type="bicycle">
        <route edges="-206312192#3 -206312192#2 11389403#2 -55376510#0 147053824#1 147053824#2 -146511475#0 568656006"/>
    </vehicle>
    <vehicle id="b2" depart="50315.54" type="bicycle">
        <route edges="-495593644#1 -495593644#0 310109409#2 140964910#3 147053824#5 1072269113 1072269112#0 178028203#1 178028203#2 149611534#0"/>
    </vehicle>
    <vehicle id="b3" depart="50323.31" type="bicycle">
        <route edges="-350626781 148803125#1 147053824#2 147053824#3 35554226#1 35554226#2 35554226#3 -25771472#2 25771472#2"/>
    </vehicle>
    <vehicle id="b4" depart="50331.08" type="bicycle">
        <route edges="822124413#0 822124413#1 318210358 318210355 318210354#0 -679901152#1 -45875465 -45875465.50 -152839426 -178028204#9 -178028204#9.72 23913525#0 -317233620 61660894 -23913525#0 178028204#9 178028204#9.13"/>
    </vehicle>
    <vehicle id="b5" depart="50338.85" type="bicycle">
        <route edges="-965589216 140964915#1 140964915#2 25771472#0 25771472#1 25771472#2 -35554226#3 -35554226#2 -35554226#1 -147053824#3 -147053824#2 -147053824#1 -42857424#2 -42857424#1 -42857424#0"/>
    </vehicle>
    <vehicle id="b6" depart="50346.63" type="bicycle">
        <route edges="822124413#0 822124413#1 318210358 318210355 318210354#0 -679901152#1 -45875465 -45875465.50 -152839426 -178028204#9 -178028204#9.72 23913525#0 -317233620 61660894 -23913525#0 178028204#9 178028204#9.13"/>
    </vehicle>
    <vehicle id="b7" depart="50354.40" type="bicycle">
        <route edges="-206312192#3 -206312192#2 11389403#2 -55376510#0 147053824#1 147053824#2 147053824#3 147053824#4 -140964910#3 -310109409#2 -310109409#1 -310109409#0"/>
    </vehicle>
    <vehicle id="b8" depart="50362.17" type="bicycle">
        <route edges="603469202 -149611511#1 -149611511#0 -166142951#1 -166142951#0 -1066221582 -1066221787 -1066222296#1 -1066222296#0 -137534616 25771472#0 25771472#1 25771472#2 -35554226#3 -35554226#2 -35554226#1 -147053824#3 -147053824#2 -147053824#1 -11389403#3 55376510#1 -26993480"/>
    </vehicle>
    <vehicle id="b9" depart="50369.94" type="bicycle">
        <route edges="822124413#0 822124413#1 318210358 318210355 318210354#0 -679901152#1 -45875465 -45875465.50 -152839426 -178028204#9 -178028204#9.72 23913525#0 -317233620 61660894 -23913525#0 178028204#9 178028204#9.13"/>
    </vehicle>
    <vehicle id="b10" depart="50377.71" type="bicycle">
        <route edges="754032234 23913523#2 23913523#3 140964927#4 -147053824#3 -146511475#0 -1093549550#1 -87846825#1 -87846825#0"/>
    </vehicle>
    <vehicle id="b11" depart="50385.48" type="bicycle">
        <route edges="42857424#0 42857424#1 42857424#2 147053824#1 147053824#2 147053824#3 147053824#4 147053824#5 1072269113 -19589130#4 310096356#0 678099922"/>
    </vehicle>
    <vehicle id="b12" depart="50393.25" type="bicycle">
        <route edges="822124413#0 822124413#1 318210358 318210355 318210354#0 -679901152#1 -45875465 -45875465.50 -152839426 -178028204#9 -178028204#9.72 23913525#0 -317233620 -61660891"/>
    </vehicle>
    <vehicle id="b13" depart="50401.02" type="bicycle">
        <route edges="-23925122#1 23925122#1 23925123#1 -24152326#0 -152839426 -178028204#9 -178028204#9.72 23913525#0 -317233620 -61660891"/>
    </vehicle>
    <vehicle id="b14" depart="50408.79" type="bicycle">
        <route edges="822124413#0 822124413#1 318210358 318210355 318210354#0 -679901152#1 -45875465 -45875465.50 -152839426 -178028204#9 -178028204#9.72 23913525#0 -317233620 -61660891"/>
    </vehicle>
    <vehicle id="b15" depart="50416.56" type="bicycle">
        <route edges="42857424#0 42857424#1 42857424#2 147053824#1 147053824#2 147053824#3 147053824#4 147053824#5 1072269113 1072269112#0 178028203#1 178028203#2 178028204#1 178028204#4 178028204#9 178028204#9.13 166142947#1 -152839428 -152839428.39 679901152#0 72230304#1 461514282#0 461514282#1"/>
    </vehicle>
    <vehicle id="b16" depart="50424.34" type="bicycle">
        <route edges="822124413#0 822124413#1 318210358 318210355 318210354#0 -679901152#1 -45875465 -45875465.50 -152839426 -20553068#3 581944408"/>
    </vehicle>
    <vehicle id="b17" depart="50432.11" type="bicycle">
        <route edges="886496552#0 886496552#1 -23919022#0 -149611511#2 -149611511#1 -149611511#0 -166142951#1 -166142951#0 -1066221582 -1066221787 -1066222296#1 -1066222296#0 -137534616 25771472#0 25771472#1 25771472#2 -35554226#3 -35554226#2 -35554226#1 -147053824#3 -147053824#2 -147053824#1 -11389403#3 -11389403#2 -11389403#1 E0"/>
    </vehicle>
    <vehicle id="b18" depart="50439.88" type="bicycle">
        <route edges="822124413#0 822124413#1 318210358 318210355 318210354#0 -679901152#1 -45875465 -45875465.50 -152839426 -178028204#9 -178028204#9.72 23913525#0 -317233620 61660894 -23913525#0 178028204#9 178028204#9.13"/>
    </vehicle>
    <vehicle id="b19" depart="50447.65" type="bicycle">
        <route edges="-23925122#1 23925122#1 23925123#1 -24152326#0 -152839426 -178028204#9 -178028204#9.72 23913525#0 -317233620 -61660891"/>
    </vehicle>
    <vehicle id="b20" depart="50455.42" type="bicycle">
        <route edges="-187114311 23925124#2 -166142951#1 -166142951#0 -1066221582 -1066221787 -1066222296#1 -1066222296#0 -137534616 25771472#0 -140964907#3 -140964907#2 -140964907#1 1072269113 1072269112#0"/>
    </vehicle>
    <vehicle id="b21" depart="50463.19" type="bicycle">
        <route edges="809228515 140964915#2 25771472#0 25771472#1 25771472#2 -35554226#3 -35554226#2 -35554226#1 -147053824#3 -147053824#2 -147053824#1 -42857424#2 -42857424#1 -42857424#0"/>
    </vehicle>
    <vehicle id="b22" depart="50470.96" type="bicycle">
        <route edges="886496552#0 886496552#1 -23919022#0 -149611511#2 -149611511#1 -149611511#0 -166142951#1 -166142951#0 -1066221582 -1066221787 -1066222296#1 -1066222296#0 -137534616 25771472#0 25771472#1 25771472#2 -35554226#3 -35554226#2 -35554226#1 -147053824#3 -147053824#2 -147053824#1 -42857424#2 -42857424#1 -42857424#0"/>
    </vehicle>
    <vehicle id="b23" depart="50478.73" type="bicycle">
        <route edges="-187114311 23925124#2 -166142951#1 -166142951#0 -1066221582 -1066221787 -1066222296#1 -1066222296#0 -137534616 25771472#0 -140964907#3 -140964907#2 -140964907#1 1072269113 1072269112#0"/>
    </vehicle>
    <vehicle id="b24" depart="50486.50" type="bicycle">
        <route edges="822124413#0 822124413#1 318210358 318210355 318210354#0 -679901152#1 -45875465 -45875465.50 -152839426 -178028204#9 -178028204#9.72 23913525#0 -317233620 -61660891"/>
    </vehicle>
    <vehicle id="b25" depart="50494.27" type="bicycle">
        <route edges="-23925122#1 23925122#1 23925123#1 -24152326#0 -152839426 -178028204#9 -178028204#9.72 23913525#0 -317233620 -61660891"/>
    </vehicle>
    <vehicle id="b26" depart="50502.04" type="bicycle">
        <route edges="822124413#1 318210358 318210355 318210354#0 -679901152#1 -45875465 -45875465.50 -152839426 -20553068#3 581944408"/>
    </vehicle>
    <vehicle id="b27" depart="50509.82" type="bicycle">
        <route edges="-187114311 23925124#2 -166142951#1 -166142951#0 -1066221582 -1066221787 -1066222296#1 -1066222296#0 -137534616 25771472#0 -140964907#3 -140964907#2 -140964907#1 1072269113 1072269112#0"/>
    </vehicle>
    <vehicle id="b28" depart="50517.59" type="bicycle">
        <route edges="822124413#0 822124413#1 318210358 318210355 318210354#0 -679901152#1 -45875465 -45875465.50 -152839426 -178028204#9 -178028204#9.72 23913525#0 -317233620 61660894 -23913525#0 178028204#9 178028204#9.13"/>
    </vehicle>
    <vehicle id="b29" depart="50525.36" type="bicycle">
        <route edges="-579671869#1 -579671869#0 -166142951#0 -1066221582 -1066221787 -1066222296#1 -1066222296#0 -137534616 25771472#0 25771472#1 25771472#2 -35554226#3 -35554226#2 -35554226#1 -147053824#3 -147053824#2 -147053824#1 -11389403#3 55376510#1 55376510#2"/>
    </vehicle>
    <vehicle id="b30" depart="50533.13" type="bicycle">
        <route edges="23913525#1 -23913525#1 -23913525#0 178028204#9 178028204#9.13 166142947#1 -152839428 -152839428.39 679901152#0 206889086#1 152839448#0 541676219"/>
    </vehicle>
    <vehicle id="b31" depart="50540.90" type="bicycle">
        <route edges="822124413#0 822124413#1 318210358 318210355 318210354#0 -679901152#1 -45875465 -45875465.50 -152839426 -178028204#9 -178028204#9.72 23913525#0 -317233620 -61660891"/>
    </vehicle>
    <vehicle id="b32" depart="50548.67" type="bicycle">
        <route edges="-23925122#1 23925122#1 23925123#1 -24152326#0 -152839426 -178028204#9 -178028204#9.72 23913525#0 -317233620 -61660891"/>
    </vehicle>
    <vehicle id="b33" depart="50556.44" type="bicycle">
        <route edges="603469202 -149611511#1 -149611511#0 -166142951#1 -166142951#0 -1066221582 -1066221787 -1066222296#1 -1066222296#0 -137534616 25771472#0 25771472#1 25771472#2 -35554226#3 -35554226#2 -35554226#1 -147053824#3 -147053824#2 -147053824#1 -11389403#3 -11389403#2 -11389403#1 E0"/>
    </vehicle>
    <vehicle id="b34" depart="50564.21" type="bicycle">
        <route edges="-350626781 148803125#1 147053824#2 147053824#3 147053824#4 147053824#5 1072269113 1072269112#0 178028203#1 178028203#2 -178028206#2 -178028206#1"/>
    </vehicle>
    <vehicle id="b35" depart="50571.98" type="bicycle">
        <route edges="-187114311 23925124#2 -166142951#1 -166142951#0 -1066221582 -1066221787 -1066222296#1 -1066222296#0 -137534616 25771472#0 -140964907#3 -140964907#2 -140964907#1 1072269113 1072269112#0"/>
    </vehicle>
    <vehicle id="b36" depart="50579.75" type="bicycle">
        <route edges="-206312192#3 -206312192#2 11389403#2 -55376510#0 147053824#1 147053824#2 147053824#3 147053824#4 -140964910#3 -310109409#2 -310109409#1 -310109409#0"/>
    </vehicle>
    <vehicle id="b37" depart="50587.53" type="bicycle">
        <route edges="886496552#0 886496552#1 -23919022#0 -149611511#2 -149611511#1 -149611511#0 -23925124#2 -23925124#1 -23925124#0 -24152326#1 -24152326#0 -152839426 -178028204#9"/>
    </vehicle>
    <vehicle id="b38" depart="50595.30" type="bicycle">
        <route edges="603469202 -149611511#1 -149611511#0 -166142951#1 -166142951#0 -1066221582 -1066221787 -1066222296#1 -1066222296#0 -137534616 25771472#0 25771472#1 25771472#2 -35554226#3 -35554226#2 -35554226#1 -147053824#3 -147053824#2 -147053824#1 -42857424#2 -42857424#1 -42857424#0"/>
    </vehicle>
    <vehicle id="b39" depart="50603.07" type="bicycle">
        <route edges="140964927#2 140964927#3 23913523#4 23913523#5 19589130#3 19589130#4 1072269112#0 140964915#0 140964915#1 140964915#2 137534616 1066222296#0 1066222296#1 1066221786 1066221582 166142951#0 166142951#1 149611511#0 149611511#1 603469201"/>
    </vehicle>
    <vehicle id="b40" depart="50610.84" type="bicycle">
        <route edges="822124413#0 822124413#1 318210358 318210355 318210354#0 -679901152#1 -45875465 -45875465.50 -152839426 -178028204#9 -178028204#9.72 23913525#0 -317233620 -61660891"/>
    </vehicle>
    <vehicle id="b41" depart="50618.61" type="bicycle">
        <route edges="809228515 140964915#2 25771472#0 25771472#1 25771472#2 -35554226#3 -35554226#2 -35554226#1 -147053824#3 -147053824#2 -147053824#1 -42857424#2 -42857424#1 -42857424#0"/>
    </vehicle>
    <vehicle id="b42" depart="50626.38" type="bicycle">
        <route edges="822124413#0 822124413#1 318210358 318210355 318210354#0 -679901152#1 -45875465 -45875465.50 -152839426 -178028204#9 -178028204#9.72 23913525#0 -317233620 61660894 -23913525#0 178028204#9 178028204#9.13"/>
    </vehicle>
    <vehicle id="b43" depart="50634.15" type="bicycle">
        <route edges="822124413#0 822124413#1 318210358 318210355 318210354#0 -679901152#1 -45875465 -45875465.50 24152326#0 24152326#1 23925124#0 23925124#1 23925124#2 -166142951#1 -166142951#0 -1066221582 -1066221787 -1066222296#1 -1066222296#0 -137534616 25771472#0 25771472#1 25771472#2 35554229#0 35554229#1 35215636"/>
    </vehicle>
    <vehicle id="b44" depart="50641.92" type="bicycle">
        <route edges="886496552#0 886496552#1 -23919022#0 -149611511#2 -149611511#1 -149611511#0 -23925124#2 -23925124#1 -23925124#0 -24152326#1 -24152326#0 -152839426 -178028204#9"/>
    </vehicle>
    <vehicle id="b45" depart="50649.69" type="bicycle">
        <route edges="822124413#0 822124413#1 318210358 318210355 318210354#0 -679901152#1 -45875465 -45875465.50 -152839426 -178028204#9 -178028204#9.72 23913525#0 -317233620 61660894 -23913525#0 178028204#9 178028204#9.13"/>
    </vehicle>
    <vehicle id="b46" depart="50657.46" type="bicycle">
        <route edges="-23925122#1 23925122#1 23925123#1 -24152326#0 -152839426 -178028204#9 -178028204#9.72 23913525#0 -317233620 -61660891"/>
    </vehicle>
    <vehicle id="b47" depart="50665.24" type="bicycle">
        <route edges="603469202 -149611511#1 -149611511#0 -166142951#1 -166142951#0 -1066221582 -1066221787 -1066222296#1 -1066222296#0 -137534616 25771472#0 25771472#1 25771472#2 -35554226#3 -35554226#2 -35554226#1 -147053824#3 -147053824#2 -147053824#1 -11389403#3 -11389403#2 -11389403#1 E0"/>
    </vehicle>
    <vehicle id="b48" depart="50673.01" type="bicycle">
        <route edges="149611511#1 603469201 603469202 -149611511#1 -149611511#0 -166142951#1 -166142951#0 -1066221582 -1066221787 -1066222296#1 -1066222296#0 -137534616 25771472#0 25771472#1 25771472#2 -35554226#3 -35554226#2 -35554226#1 -147053824#3 -147053824#2 -147053824#1 -11389403#3 -11389403#2 206312192#2 206312192#3"/>
    </vehicle>
    <vehicle id="b49" depart="50680.78" type="bicycle">
        <route edges="-350626781 148803125#1 -147053824#1 -11389403#3 -11389403#2 -206312192#1 -238053701 -238053696 -238053694"/>
    </vehicle>
    <vehicle id="b50" depart="50688.55" type="bicycle">
        <route edges="-206312192#3 -206312192#2 11389403#2 -55376510#0 147053824#1 147053824#2 147053824#3 147053824#4 -140964910#3 -310109409#2 495593644#0 495593644#1"/>
    </vehicle>
    <vehicle id="b51" depart="50696.32" type="bicycle">
        <route edges="822124413#1 318210358 318210355 318210354#0 -679901152#1 -45875465 -45875465.50 -152839426 -20553068#3 581944408"/>
    </vehicle>
    <vehicle id="b52" depart="50704.09" type="bicycle">
        <route edges="148803127#0 148803132#0 148803125#0 148803125#1 -147053824#1 11391856#2 23913523#0 754029705"/>
    </vehicle>
    <vehicle id="b53" depart="50711.86" type="bicycle">
        <route edges="822124413#0 822124413#1 318210358 318210355 318210354#0 -679901152#1 -45875465 -45875465.50 -152839426 -178028204#9 -178028204#9.72 23913525#0 -317233620 61660894 -23913525#0 178028204#9 178028204#9.13"/>
    </vehicle>
    <vehicle id="b54" depart="50719.63" type="bicycle">
        <route edges="603469202 -149611511#1 -149611511#0 -166142951#1 -166142951#0 -1066221582 -1066221787 -1066222296#1 -1066222296#0 -137534616 25771472#0 25771472#1 25771472#2 -35554226#3 -35554226#2 -35554226#1 -147053824#3 -147053824#2 -147053824#1 -42857424#2 -42857424#1 -42857424#0"/>
    </vehicle>
    <vehicle id="b55" depart="50727.40" type="bicycle">
        <route edges="-23925122#1 23925122#1 23925123#1 -24152326#0 -152839426 -178028204#9 -178028204#9.72 23913525#0 -317233620 -61660891"/>
    </vehicle>
    <vehicle id="b56" depart="50735.17" type="bicycle">
        <route edges="886496552#0 886496552#1 -23919022#0 -149611511#2 -149611511#1 -149611511#0 -23925124#2 -23925124#1 -23925124#0 -24152326#1 -24152326#0 -152839426 -178028204#9"/>
    </vehicle>
    <vehicle id="b57" depart="50742.94" type="bicycle">
        <route edges="822124413#0 822124413#1 318210358 318210355 318210354#0 -679901152#1 -45875465 -45875465.50 -152839426 -178028204#9 -178028204#9.72 23913525#0 -317233620 61660894 -23913525#0 178028204#9 178028204#9.13"/>
    </vehicle>
    <vehicle id="b58" depart="50750.72" type="bicycle">
        <route edges="822124413#0 822124413#1 318210358 318210355 318210354#0 -679901152#1 -45875465 -45875465.50 -152839426 -178028204#9 -178028204#9.72 23913525#0 -317233620 61660894 -23913525#0 178028204#9 178028204#9.13"/>
    </vehicle>
    <vehicle id="b59" depart="50758.49" type="bicycle">
        <route edges="-35554226#3 -35554226#2 -35554226#1 147053824#4 147053824#5 1072269113 1072269112#0 178028203#1 178028203#2 178028204#1 178028204#4 178028204#9 178028204#9.13 166142947#1 -152839428 -152839428.39 679901152#0 1145174465#1 886496559#0 886496559#1 886496559#2 886496559#3 886496559#4"/>
    </vehicle>
    <vehicle id="b60" depart="50766.26" type="bicycle">
        <route edges="-678099923 -310096356#1 -310096356#0 19589130#4 -1072269113 -147053824#5 -147053824#4 -147053824#3 -147053824#2 -148803125#1 -148803125#0 148803132#1 -45336120#0 -148803138#2 -148803138#1"/>
    </vehicle>
    <vehicle id="b61" depart="50774.03" type="bicycle">
        <route edges="822124413#0 822124413#1 318210358 318210355 318210354#0 -679901152#1 -45875465 -45875465.50 -152839426 -178028204#9 -178028204#9.72 23913525#0 -317233620 -61660891"/>
    </vehicle>
    <vehicle id="b62" depart="50781.80" type="bicycle">
        <route edges="754029706 23913523#2 23913523#3 140964927#4 -147053824#3 -146511475#0 -1093549550#1 -87846825#1 -87846825#0"/>
    </vehicle>
    <vehicle id="b63" depart="50789.57" type="bicycle">
        <route edges="822124413#0 822124413#1 318210358 318210355 318210354#0 -679901152#1 -45875465 -45875465.50 -152839426 -178028204#9 -178028204#9.72 23913525#0 -317233620 -61660891"/>
    </vehicle>
    <vehicle id="b64" depart="50797.34" type="bicycle">
        <route edges="822124413#0 822124413#1 318210358 318210355 318210354#0 -679901152#1 -45875465 -45875465.50 24152326#0 24152326#1 23925124#0 23925124#1 23925124#2 149611511#0 149611511#1 149611511#2 23919022#0"/>
    </vehicle>
    <vehicle id="b65" depart="50805.11" type="bicycle">
        <route edges="822124413#0 822124413#1 318210358 318210355 318210354#0 -679901152#1 -45875465 -45875465.50 -152839426 -178028204#9 -178028204#9.72 23913525#0 -317233620 -61660891"/>
    </vehicle>
    <vehicle id="b66" depart="50812.88" type="bicycle">
        <route edges="822124413#0 822124413#1 318210358 318210355 318210354#0 -679901152#1 -45875465 -45875465.50 -152839426 -178028204#9 -178028204#9.72 23913525#0 -317233620 -61660891"/>
    </vehicle>
    <vehicle id="b67" depart="50820.65" type="bicycle">
        <route edges="-350626781 148803125#1 147053824#2 147053824#3 35554226#1 35554226#2 35554226#3 -25771472#2 25771472#2"/>
    </vehicle>
    <vehicle id="b68" depart="50828.43" type="bicycle">
        <route edges="822124413#0 822124413#1 318210358 318210355 318210354#0 -679901152#1 -45875465 -45875465.50 -152839426 -178028204#9 -178028204#9.72 23913525#0 -317233620 -61660891"/>
    </vehicle>
    <vehicle id="b69" depart="50836.20" type="bicycle">
        <route edges="-822222159 140964910#2 140964910#3 -147053824#4 -147053824#3 -147053824#2 -147053824#1 -11389403#3 -11389403#2 -11389403#1 E0"/>
    </vehicle>
    <vehicle id="b70" depart="50843.97" type="bicycle">
        <route edges="822124413#0 822124413#1 318210358 318210355 318210354#0 -679901152#1 -45875465 -45875465.50 -152839426 -178028204#9 -178028204#9.72 23913525#0 -317233620 61660894 -23913525#0 178028204#9 178028204#9.13"/>
    </vehicle>
    <vehicle id="b71" depart="50851.74" type="bicycle">
        <route edges="-187114311 23925124#2 -166142951#1 -166142951#0 -1066221582 -1066221787 -1066222296#1 -1066222296#0 -137534616 25771472#0 -140964907#3 -140964907#2 -140964907#1 1072269113 1072269112#0"/>
    </vehicle>
    <vehicle id="b72" depart="50859.51" type="bicycle">
        <route edges="822124413#0 822124413#1 318210358 318210355 318210354#0 -679901152#1 -45875465 -45875465.50 -152839426 -178028204#9 -178028204#9.72 23913525#0 -317233620 61660894 -23913525#0 178028204#9 178028204#9.13"/>
    </vehicle>
    <vehicle id="b73" depart="50867.28" type="bicycle">
        <route edges="-579671869#1 -579671869#0 -166142951#0 -1066221582 -1066221787 -1066222296#1 -1066222296#0 -137534616 25771472#0 25771472#1 25771472#2 -35554226#3 -35554226#2 -35554226#1 -147053824#3 -147053824#2 -147053824#1 -11389403#3 55376510#1 55376510#2"/>
    </vehicle>
    <vehicle id="b74" depart="50875.05" type="bicycle">
        <route edges="-965589216 140964915#1 140964915#2 25771472#0 25771472#1 25771472#2 -35554226#3 -35554226#2 -35554226#1 -147053824#3 -147053824#2 -147053824#1 -42857424#2 -42857424#1 -42857424#0"/>
    </vehicle>
    <vehicle id="b75" depart="50882.82" type="bicycle">
        <route edges="822124413#0 822124413#1 318210358 318210355 318210354#0 -679901152#1 -45875465 -45875465.50 -152839426 -178028204#9 -178028204#9.72 23913525#0 -317233620 61660894 -23913525#0 178028204#9 178028204#9.13"/>
    </vehicle>
    <vehicle id="b76" depart="50890.59" type="bicycle">
        <route edges="-350626781 148803125#1 147053824#2 147053824#3 147053824#4 -140964910#3 -140964910#2 822222159"/>
    </vehicle>
    <vehicle id="b77" depart="50898.36" type="bicycle">
        <route edges="822124413#0 822124413#1 318210358 318210355 318210354#0 -679901152#1 -45875465 -45875465.50 -152839426 -178028204#9 -178028204#9.72 23913525#0 -317233620 -61660891"/>
    </vehicle>
    <vehicle id="b78" depart="50906.13" type="bicycle">
        <route edges="-23925122#1 23925122#1 23925123#1 -24152326#0 -152839426 -178028204#9 -178028204#9.72 23913525#0 -317233620 -61660891"/>
    </vehicle>
    <vehicle id="b79" depart="50913.91" type="bicycle">
        <route edges="822124413#0 822124413#1 318210358 318210355 318210354#0 -679901152#1 -45875465 -45875465.50 -152839426 -178028204#9 -178028204#9.72 23913525#0 -317233620 61660894 -23913525#0 178028204#9 178028204#9.13"/>
    </vehicle>
    <vehicle id="b80" depart="50921.68" type="bicycle">
        <route edges="25771472#2 -35554226#3 -35554226#2 -35554226#1 -147053824#3 -147053824#2 -147053824#1 -42857424#2 -42857424#1 -42857424#0"/>
    </vehicle>
    <vehicle id="b81" depart="50929.45" type="bicycle">
        <route edges="87846825#0 87846825#1 1093549550#1 146511475#0 -147053824#2 -147053824#1 -11389403#3 -11389403#2 206312192#2 206312192#3"/>
    </vehicle>
    <vehicle id="b82" depart="50937.22" type="bicycle">
        <route edges="886496552#0 886496552#1 -23919022#0 -149611511#2 -149611511#1 -149611511#0 -166142951#1 -166142951#0 -1066221582 -1066221787 -1066222296#1 -1066222296#0 -137534616 25771472#0 25771472#1 25771472#2 -35554226#3 -35554226#2 -35554226#1 -147053824#3 -147053824#2 -147053824#1 -11389403#3 -11389403#2 -11389403#1 E0"/>
    </vehicle>
    <vehicle id="b83" depart="50944.99" type="bicycle">
        <route edges="149611511#1 603469201 603469202 -149611511#1 -149611511#0 -166142951#1 -166142951#0 -1066221582 -1066221787 -1066222296#1 -1066222296#0 -137534616 25771472#0 25771472#1 25771472#2 -35554226#3 -35554226#2 -35554226#1 -147053824#3 -147053824#2 -147053824#1 -11389403#3 -11389403#2 206312192#2 206312192#3"/>
    </vehicle>
    <vehicle id="b84" depart="50952.76" type="bicycle">
        <route edges="886496552#0 886496552#1 -23919022#0 -149611511#2 -149611511#1 -149611511#0 -23925124#2 -23925124#1 -23925124#0 -24152326#1 -24152326#0 -152839426 -178028204#9"/>
    </vehicle>
    <vehicle id="b85" depart="50960.53" type="bicycle">
        <route edges="-206312192#3 -206312192#2 11389403#2 -55376510#0 147053824#1 147053824#2 -146511475#0 -1093549550#1 -87846825#1 -87846825#0"/>
    </vehicle>
    <vehicle id="b86" depart="50968.30" type="bicycle">
        <route edges="822124413#1 318210358 318210355 318210354#0 -679901152#1 -45875465 -45875465.50 -152839426 -20553068#3 581944408"/>
    </vehicle>
    <vehicle id="b87" depart="50976.07" type="bicycle">
        <route edges="-124266865 124266865 206312192#1 11389403#2 -55376510#0 147053824#1 147053824#2 147053824#3 147053824#4 147053824#5 140964907#1 140964907#2 140964907#3 -25771472#0 137534616 1066222296#0 1066222296#1 1066221786 1066221582 166142951#0 579671869#0 579671869#1"/>
    </vehicle>
    <vehicle id="b88" depart="50983.84" type="bicycle">
        <route edges="603469202 -149611511#1 -149611511#0 -166142951#1 -166142951#0 -1066221582 -1066221787 -1066222296#1 -1066222296#0 -137534616 25771472#0 25771472#1 25771472#2 -35554226#3 -35554226#2 -35554226#1 -147053824#3 -147053824#2 -148803125#1 350626781"/>
    </vehicle>
    <vehicle id="b89" depart="50991.62" type="bicycle">
        <route edges="822124413#0 822124413#1 318210358 318210355 318210354#0 -679901152#1 -45875465 -45875465.50 -152839426 -178028204#9 -178028204#9.72 23913525#0 -317233620 61660894 -23913525#0 178028204#9 178028204#9.13"/>
    </vehicle>
    <vehicle id="b90" depart="50999.39" type="bicycle">
        <route edges="886496552#0 886496552#1 -23919022#0 -149611511#2 -149611511#1 -149611511#0 -166142951#1 -166142951#0 -1066221582 -1066221787 -1066222296#1 -1066222296#0 -137534616 25771472#0 25771472#1 25771472#2 -35554226#3 -35554226#2 -35554226#1 -147053824#3 -147053824#2 -147053824#1 -11389403#3 -11389403#2 -11389403#1 E0"/>
    </vehicle>
    <vehicle id="b91" depart="51007.16" type="bicycle">
        <route edges="-23913523#5 -23913523#4 140964927#4 -147053824#3 -146511475#0 568656006"/>
    </vehicle>
    <vehicle id="b92" depart="51014.93" type="bicycle">
        <route edges="-678099923 -310096356#1 -310096356#0 19589130#4 -1072269113 -147053824#5 -140964910#3 -140964910#2 -140964910#1 25771472#2"/>
    </vehicle>
    <vehicle id="b93" depart="51022.70" type="bicycle">
        <route edges="886496552#0 886496552#1 -23919022#0 -149611511#2 -149611511#1 -149611511#0 -23925124#2 -23925124#1 -23925124#0 -24152326#1 -24152326#0 -152839426 -178028204#9"/>
    </vehicle>
    <vehicle id="b94" depart="51030.47" type="bicycle">
        <route edges="822124413#0 822124413#1 318210358 318210355 318210354#0 -679901152#1 -45875465 -45875465.50 -152839426 -178028204#9 -178028204#9.72 23913525#0 -317233620 61660894 -23913525#0 178028204#9 178028204#9.13"/>
    </vehicle>
    <vehicle id="b95" depart="51038.24" type="bicycle">
        <route edges="-187114311 23925124#2 -166142951#1 -166142951#0 -1066221582 -1066221787 -1066222296#1 -1066222296#0 -137534616 25771472#0 -140964907#3 -140964907#2 -140964907#1 1072269113 1072269112#0"/>
    </vehicle>
    <vehicle id="b96" depart="51046.01" type="bicycle">
        <route edges="822124413#0 822124413#1 318210358 318210355 318210354#0 -679901152#1 -45875465 -45875465.50 -152839426 -20553068#3 581944408"/>
    </vehicle>
    <vehicle id="b97" depart="51053.78" type="bicycle">
        <route edges="886496552#0 886496552#1 -23919022#0 -149611511#2 -149611511#1 -149611511#0 -166142951#1 -166142951#0 -1066221582 -1066221787 -1066222296#1 -1066222296#0 -137534616 25771472#0 25771472#1 25771472#2 -35554226#3 -35554226#2 -35554226#1 -147053824#3 -147053824#2 -147053824#1 -11389403#3 -11389403#2 -206312192#1 -238053701 -238053696 -238053694"/>
    </vehicle>
    <vehicle id="b98" depart="51061.55" type="bicycle">
        <route edges="-187114311 23925124#2 -166142951#1 -166142951#0 -1066221582 -1066221787 -1066222296#1 -1066222296#0 -137534616 25771472#0 -140964907#3 -140964907#2 -140964907#1 1072269113 1072269112#0"/>
    </vehicle>
    <vehicle id="b99" depart="51069.33" type="bicycle">
        <route edges="886496552#0 886496552#1 -23919022#0 -149611511#2 -149611511#1 -149611511#0 -166142951#1 -166142951#0 -1066221582 -1066221787 -1066222296#1 -1066222296#0 -137534616 25771472#0 25771472#1 25771472#2 -35554226#3 -35554226#2 -35554226#1 -147053824#3 -147053824#2 -147053824#1 -42857424#2 -42857424#1 -42857424#0"/>
    </vehicle>
    <vehicle id="b100" depart="51077.10" type="bicycle">
        <route edges="-E0 11389403#1 11389403#2 -55376510#0 147053824#1 147053824#2 -146511475#0 568656006"/>
    </vehicle>
    <vehicle id="b101" depart="51084.87" type="bicycle">
        <route edges="822124413#0 822124413#1 318210358 318210355 318210354#0 -679901152#1 -45875465 -45875465.50 -152839426 -20553068#3 581944408"/>
    </vehicle>
    <vehicle id="b102" depart="51092.64" type="bicycle">
        <route edges="822124413#0 822124413#1 318210358 318210355 318210354#0 -679901152#1 -45875465 -45875465.50 -152839426 -178028204#9 -178028204#9.72 23913525#0 -317233620 61660894 -23913525#0 178028204#9 178028204#9.13"/>
    </vehicle>
    <vehicle id="b103" depart="51100.41" type="bicycle">
        <route edges="-187114311 23925124#2 -166142951#1 -166142951#0 -1066221582 -1066221787 -1066222296#1 -1066222296#0 -137534616 25771472#0 -140964907#3 -140964907#2 -140964907#1 1072269113 1072269112#0"/>
    </vehicle>
    <vehicle id="b104" depart="51108.18" type="bicycle">
        <route edges="822124413#0 822124413#1 318210358 318210355 318210354#0 -679901152#1 -45875465 -45875465.50 -152839426 -178028204#9 -178028204#9.72 23913525#0 -317233620 61660894 -23913525#0 178028204#9 178028204#9.13"/>
    </vehicle>
    <vehicle id="b105" depart="51115.95" type="bicycle">
        <route edges="-187114311 23925124#2 -166142951#1 -166142951#0 -1066221582 -1066221787 -1066222296#1 -1066222296#0 -137534616 25771472#0 -140964907#3 -140964907#2 -140964907#1 1072269113 1072269112#0"/>
    </vehicle>