<?xml version="1.0" encoding="UTF-8"?>

<!-- generated on 2023-06-01 11:25:44.037774 by routeSampler.py v1_17_0+0611-19e794c0a97
<configuration>
    <route-files value="osm.passenger.rou.xml"/>
    <edgedata-files value="edge_data_cars.xml"/>
    <output-file value="samplertrips.rou.xml"/>
    <optimize value="full"/>
</configuration>
-->

<routes xmlns:xsi="http://www.w3.org/2001/XMLSchema-instance" xsi:noNamespaceSchemaLocation="http://sumo.dlr.de/xsd/routes_file.xsd">
<!-- begin="50300.0" end="54100.0" -->
    <vehicle id="0" depart="50300.00">
        <route edges="187123033#1 187123053#3 187123053#4 187123053#5 187123053#6 -152839426 -166142947#1 -178028204#9 -178028204#4 -178028204#3 -178028204#1 -178028203#2 -178028203#1 -1072269112#0 -1072269113 -147053824#5 -147053824#4 -147053824#3 -147053824#2 -147053824#1 11391856#2 11391856#3"/>
    </vehicle>
    <vehicle id="1" depart="50303.36">
        <route edges="61422979#1 20554204#2 20554204#3 178028206#1 178028206#2 -178028203#2 -178028203#1 -1072269112#0 -1072269113 -147053824#5 -147053824#4 -147053824#3 -147053824#2 -147053824#1 11391856#2 23913522#0"/>
    </vehicle>
    <vehicle id="2" depart="50306.72">
        <route edges="-318210394 -52080655#2 976351540#1 52036180#5 -679901152#1 -45875465 152839428 -152839426 -166142947#1 -178028204#9 -178028204#4 -178028204#3 -178028204#1 -178028203#2 -178028203#1 -1072269112#0 -1072269113 -147053824#5 -147053824#4 -147053824#3 -147053824#2 -147053824#1 11391856#2 23913522#0 23913522#1"/>
    </vehicle>
    <vehicle id="3" depart="50310.08">
        <route edges="-E0 11389403#1 11389403#2 11389403#3 147053824#1 147053824#2 147053824#3 147053824#4 147053824#5 1072269113 1072269112#0 178028203#1 178028203#2 178028204#1 178028204#3 178028204#4 178028204#9 166142947#1 152839426 -152839428 45875465 679901152#0 206889086#1 152839448#0 541676219 318210389#0 52080655#1 318210394"/>
    </vehicle>
    <vehicle id="4" depart="50313.44">
        <route edges="178028206#2 178028204#1 178028204#3 178028204#4 178028204#9 166142947#1 152839426 -152839428 45875465 679901152#0 72230304#1 461514282#0 461514282#1"/>
    </vehicle>
    <vehicle id="5" depart="50316.80">
        <route edges="-23788323 -1066222296#0 -137534616 25771472#0 -140964907#3 -140964907#2 -140964907#1 -147053824#5 -147053824#4 -147053824#3 -147053824#2 -147053824#1 11391856#2 23913522#0 23913522#1"/>
    </vehicle>
    <vehicle id="6" depart="50320.16">
        <route edges="140964910#2 140964910#3 147053824#5 1072269113 1072269112#0 178028203#1 178028203#2 178028204#1 178028204#3 178028204#4 178028204#9 166142947#1 152839426 -152839428 45875465 679901152#0 40191607#2 40191607#3 140964905#2 20553007#1"/>
    </vehicle>
    <vehicle id="7" depart="50323.52">
        <route edges="-20553007#1 140964905#5 187123053#3 187123053#4 187123053#5 187123053#6 -152839426 -166142947#1 -178028204#9 -178028204#4 -178028204#3 -178028204#1 -178028203#2 -178028203#1 -1072269112#0 -1072269113 -147053824#5 -147053824#4 -147053824#3 -147053824#2 -147053824#1 -11389403#3 -11389403#2 -11389403#1 E0"/>
    </vehicle>
    <vehicle id="8" depart="50326.88">
        <route edges="822124413#0 822124413#1 318210358 318210355 318210354#0 -679901152#1 -45875465 152839428 -152839426 -166142947#1 -178028204#9 -178028204#4 -178028204#3 -178028204#1 -178028203#2 -178028203#1 -1072269112#0 -19589130#4 -19589130#3 19589130#3 19589130#4 1072269112#0"/>
    </vehicle>
    <vehicle id="9" depart="50330.24">
        <route edges="19589130#2 19589130#3 19589130#4 1072269112#0 178028203#1 178028203#2 178028204#1 178028204#3 178028204#4 178028204#9 166142947#1 152839426 -187123053#6 -187123053#5 -187123053#4 -187123053#3 -187123053#0"/>
    </vehicle>
    <vehicle id="10" depart="50333.60">
        <route edges="187123033#1 187123053#3 187123053#4 187123053#5 187123053#6 -152839426 -166142947#1 -178028204#9 -178028204#4 -178028204#3 -178028204#1 -178028203#2 -178028203#1 -1072269112#0 -1072269113 -147053824#5 -147053824#4 -147053824#3 -146511475#0"/>
    </vehicle>
    <vehicle id="11" depart="50336.96">
        <route edges="-23788323 -1066222296#0 -137534616 25771472#0 -140964907#3 -140964907#2 -140964907#1 -147053824#5 -147053824#4 -147053824#3 -147053824#2 -147053824#1 11391856#2 23913522#0 23913522#1"/>
    </vehicle>
    <vehicle id="12" depart="50340.32">
        <route edges="153021549#0 153021549#1 -149611526#1 -149611526#0 -166142951#1 -166142951#0 -1066221582 -1066221787 -1066222296#1 -1066222296#0 -137534616 25771472#0 -140964907#3 -140964907#2 -140964907#1 -147053824#5 -147053824#4 -147053824#3 -147053824#2 -147053824#1 -11389403#3 -11389403#2 -11389403#1 E0"/>
    </vehicle>
    <vehicle id="13" depart="50343.68">
        <route edges="187123033#1 187123053#3 187123053#4 187123053#5 187123053#6 -152839426 -166142947#1 -178028204#9 -178028204#4 -178028204#3 -178028204#1 -178028203#2 -178028203#1 -1072269112#0 -1072269113 -147053824#5 -147053824#4 -147053824#3 -147053824#2 -147053824#1 -11389403#3 -11389403#2 -11389403#1 E0"/>
    </vehicle>
    <vehicle id="14" depart="50347.04">
        <route edges="61422979#1 20554204#2 20554204#3 178028206#1 178028206#2 -178028203#2 -178028203#1 -1072269112#0 -1072269113 -147053824#5 -147053824#4 -147053824#3 -147053824#2 -147053824#1 11391856#2 23913522#0"/>
    </vehicle>
    <vehicle id="15" depart="50350.40">
        <route edges="61422979#1 20554204#2 20554204#3 178028206#1 178028206#2 -178028203#2 -178028203#1 -1072269112#0 -1072269113 -147053824#5 -147053824#4 -147053824#3 -147053824#2 -147053824#1 11391856#2 23913522#0"/>
    </vehicle>
    <vehicle id="16" depart="50353.76">
        <route edges="153021549#0 153021549#1 1102336903#0 40191606 414563781 318210357#0 -679901152#1 -45875465 152839428 -152839426 -166142947#1 -178028204#9 -178028204#4 -178028204#3 -178028204#1 -178028203#2 -178028203#1 20554351 178028209#1 515064249 20554335 20554204#0 20554204#1 -61422979#1"/>
    </vehicle>
    <vehicle id="17" depart="50357.12">
        <route edges="61422979#1 20554204#2 20554204#3 178028206#1 178028206#2 -178028203#2 -178028203#1 -1072269112#0 -1072269113 -147053824#5 -147053824#4 -147053824#3 -147053824#2 -147053824#1 11391856#2 23913522#0 23913522#1"/>
    </vehicle>
    <vehicle id="18" depart="50360.48">
        <route edges="61422979#1 20554204#2 20554204#3 178028206#1 178028206#2 178028204#1 178028204#3 178028204#4 178028204#9 166142947#1 152839426 -152839428 45875465 679901152#0 206889086#1 152839448#0 541676219 318210389#0 142575672#2 142575695#1 142575695#2 142575695#3"/>
    </vehicle>
    <vehicle id="19" depart="50363.84">
        <route edges="-318210394 -52080655#2 976351540#1 52036180#5 -679901152#1 -45875465 152839428 -152839426 -166142947#1 -178028204#9 23913525#0 23913525#1 23913525#4"/>
    </vehicle>
    <vehicle id="20" depart="50367.20">
        <route edges="-23788323 -1066222296#0 -137534616 25771472#0 -140964907#3 -140964907#2 -140964907#1 -147053824#5 -147053824#4 -147053824#3 -147053824#2 -147053824#1 11391856#2 23913522#0 23913522#1"/>
    </vehicle>
    <vehicle id="21" depart="50370.56">
        <route edges="-23913525#4 -23913525#1 -23913525#0 178028204#9 166142947#1 152839426 -152839428 45875465 679901152#0 206889086#1 152839448#0 541676219 318210389#0 142575672#2 142575672#4 318210373#0 318210373#1 318210373#3"/>
    </vehicle>
    <vehicle id="22" depart="50373.92">
        <route edges="61422979#1 20554204#2 20554204#3 178028206#1 178028206#2 178028204#1 178028204#3 178028204#4 178028204#9 166142947#1 152839426 -152839428 45875465 679901152#0 206889086#1 152839448#0 541676219 318210389#0 52080655#1 318210394"/>
    </vehicle>
    <vehicle id="23" depart="50377.28">
        <route edges="-23913522#1 -23913522#0 -11391856#2 147053824#1 147053824#2 147053824#3 147053824#4 147053824#5 1072269113 1072269112#0 178028203#1 178028203#2 178028204#1 178028204#3 178028204#4 178028204#9 166142947#1 152839426 -152839428 45875465 679901152#0 206889086#1 152839448#0 541676219 318210389#0 52080655#1 318210394"/>
    </vehicle>
    <vehicle id="24" depart="50380.64">
        <route edges="-23913522#1 -23913522#0 -11391856#2 147053824#1 147053824#2 147053824#3 147053824#4 147053824#5 1072269113 1072269112#0 178028203#1 178028203#2 178028204#1 178028204#3 178028204#4 178028204#9 166142947#1 152839426 -152839428 45875465 679901152#0 206889086#1 152839448#0 541676219 318210389#0 52080655#1 318210394"/>
    </vehicle>
    <vehicle id="25" depart="50384.00">
        <route edges="-19585417#0 -11391856#3 -11391856#2 147053824#1 147053824#2 147053824#3 147053824#4 147053824#5 1072269113 1072269112#0 178028203#1 178028203#2 178028204#1 178028204#3 178028204#4 178028204#9 166142947#1 152839426 -152839428 45875465 679901152#0 206889086#1 152839448#0 541676219 318210389#0 52080655#1 318210394"/>
    </vehicle>
    <vehicle id="26" depart="50387.36">
        <route edges="-23913525#4 -23913525#1 -23913525#0 -178028204#4 -178028204#3 -178028204#1 -178028203#2 -178028203#1 -1072269112#0 -1072269113 -147053824#5 -147053824#4 -147053824#3 -147053824#2 -147053824#1 -11389403#3 -11389403#2 -11389403#1 E0"/>
    </vehicle>
    <vehicle id="27" depart="50390.72">
        <route edges="-23913525#4 -23913525#1 -23913525#0 178028204#9 166142947#1 152839426 -152839428 45875465 679901152#0 206889086#1 152839448#0 541676219 318210389#0 142575672#2 142575672#4 318210373#0 318210373#1 318210373#3"/>
    </vehicle>
    <vehicle id="28" depart="50394.08">
        <route edges="-23913525#4 -23913525#1 -23913525#0 178028204#9 -20553068#3 -20553068#2 -20553068#1"/>
    </vehicle>
    <vehicle id="29" depart="50397.44">
        <route edges="-23788323 -1066222296#0 -137534616 25771472#0 -140964907#3 -140964907#2 -140964907#1 -147053824#5 -147053824#4 -147053824#3 -147053824#2 -147053824#1 11391856#2 23913522#0 23913522#1"/>
    </vehicle>
    <vehicle id="30" depart="50400.80">
        <route edges="-23788323 -1066222296#0 -137534616 25771472#0 -140964907#3 -140964907#2 -140964907#1 -147053824#5 -147053824#4 -147053824#3 -147053824#2 -147053824#1 11391856#2 23913522#0 23913522#1"/>
    </vehicle>
    <vehicle id="31" depart="50404.16">
        <route edges="-E0 11389403#1 11389403#2 11389403#3 147053824#1 147053824#2 147053824#3 147053824#4 147053824#5 1072269113 -19589130#4 -19589130#3 19589130#3 19589130#4 -1072269113 -147053824#5 -147053824#4"/>
    </vehicle>
    <vehicle id="32" depart="50407.52">
        <route edges="23913525#0 23913525#1 -23913525#1 -23913525#0 178028204#9 166142947#1 152839426 -152839428 45875465 679901152#0 72230304#1 461514282#0 461514282#1"/>
    </vehicle>
    <vehicle id="33" depart="50410.88">
        <route edges="140964910#2 140964910#3 147053824#5 1072269113 1072269112#0 178028203#1 178028203#2 178028204#1 178028204#3 178028204#4 178028204#9 166142947#1 152839426 -152839428 45875465 679901152#0 40191607#2 40191607#3 140964905#2 20553007#1"/>
    </vehicle>
    <vehicle id="34" depart="50414.24">
        <route edges="20554168 178028206#1 178028206#2 178028204#1 178028204#3 178028204#4 178028204#9 166142947#1 152839426 -152839428 45875465 679901152#0 40191607#2 40191607#3 140964905#2 20553007#1"/>
    </vehicle>
    <vehicle id="35" depart="50417.60">
        <route edges="-147053824#3 -147053824#2 -147053824#1 -11389403#3 11389403#3 147053824#1 147053824#2 147053824#3 147053824#4 147053824#5 1072269113 1072269112#0 178028203#1 178028203#2 178028204#1 178028204#3 178028204#4 178028204#9 166142947#1 152839426 -152839428 45875465 679901152#0 206889086#1 152839448#0 541676219 318210389#0 142575672#2 142575695#1 142575695#2 142575695#3"/>
    </vehicle>
    <vehicle id="36" depart="50420.95">
        <route edges="61422979#1 20554204#2 20554204#3 178028206#1 178028206#2 -178028203#2 -178028203#1 -1072269112#0 -1072269113 -147053824#5 -147053824#4 -147053824#3 -147053824#2 -147053824#1 11391856#2 23913522#0 23913522#1"/>
    </vehicle>
    <vehicle id="37" depart="50424.31">
        <route edges="61422979#1 20554204#2 20554204#3 178028206#1 178028206#2 178028204#1 178028204#3 178028204#4 178028204#9 166142947#1 152839426 -152839428 45875465 679901152#0 40191607#2 40191607#3 140964905#2 20553007#1"/>
    </vehicle>
    <vehicle id="38" depart="50427.67">
        <route edges="-E0 11389403#1 11389403#2 11389403#3 147053824#1 147053824#2 147053824#3 147053824#4 147053824#5 1072269113 1072269112#0 178028203#1 178028203#2 178028204#1 178028204#3 178028204#4 178028204#9 166142947#1 152839426 -152839428 45875465 679901152#0 206889086#1 152839448#0 541676219 318210389#0 142575672#2 142575672#4 318210373#0 318210373#1 318210373#3"/>
    </vehicle>
    <vehicle id="39" depart="50431.03">
        <route edges="153021549#0 153021549#1 -149611526#1 -149611526#0 -166142951#1 -166142951#0 -1066221582 -1066221787 -1066222296#1 -1066222296#0 -137534616 25771472#0 -140964907#3 -140964907#2 -140964907#1 -147053824#5 -147053824#4 -147053824#3 -147053824#2 -147053824#1 -11389403#3 -11389403#2 -11389403#1 E0"/>
    </vehicle>
    <vehicle id="40" depart="50434.39">
        <route edges="-23913525#4 -23913525#1 -23913525#0 178028204#9 -20553068#3 -20553068#2 -20553068#1"/>
    </vehicle>
    <vehicle id="41" depart="50437.75">
        <route edges="-318210394 -52080655#2 976351540#1 52036180#5 -679901152#1 -45875465 152839428 -152839426 -166142947#1 -178028204#9 -140964924"/>
    </vehicle>
    <vehicle id="42" depart="50441.11">
        <route edges="61422979#1 20554204#2 20554204#3 178028206#1 178028206#2 -178028203#2 -178028203#1 -1072269112#0 -1072269113 -147053824#5 -147053824#4 -147053824#3 -147053824#2 -147053824#1 11391856#2 23913522#0"/>
    </vehicle>
    <vehicle id="43" depart="50444.47">
        <route edges="-23913522#1 -23913522#0 -11391856#2 147053824#1 147053824#2 147053824#3 147053824#4 147053824#5 1072269113 1072269112#0 178028203#1 178028203#2 178028204#1 178028204#3 178028204#4 178028204#9 166142947#1 152839426 -152839428 45875465 679901152#0 40191607#2 40191607#3 40191607#4 40191607#5 40191607#6 20552644#2"/>
    </vehicle>
    <vehicle id="44" depart="50447.83">
        <route edges="23913525#0 23913525#1 -23913525#1 -23913525#0 178028204#9 166142947#1 152839426 -152839428 45875465 679901152#0 72230304#1 461514282#0 461514282#1"/>
    </vehicle>
    <vehicle id="45" depart="50451.19">
        <route edges="822124413#0 822124413#1 318210358 318210355 318210354#0 -679901152#1 -45875465 152839428 -152839426 -166142947#1 -178028204#9 -178028204#4 -178028204#3 -178028204#1 -178028203#2 -178028203#1 20554351 178028209#1 515064249 20554335 20554204#0 20554204#1 -61422979#1"/>
    </vehicle>
    <vehicle id="46" depart="50454.55">
        <route edges="-23788323 -1066222296#0 -137534616 25771472#0 -140964907#3 -140964907#2 -140964907#1 -147053824#5 -147053824#4 -147053824#3 -147053824#2 -147053824#1 11391856#2 23913522#0 23913522#1"/>
    </vehicle>
    <vehicle id="47" depart="50457.91">
        <route edges="143308549#0 976351540#1 52036180#5 -679901152#1 -45875465 152839428 -152839426 -166142947#1 -178028204#9 -178028204#4 -178028204#3 -178028204#1 -178028203#2 -178028203#1 20554351 178028209#1 515064249 20554335 20554204#0 20554204#1 -61422979#1"/>
    </vehicle>
    <vehicle id="48" depart="50461.27">
        <route edges="19589130#2 19589130#3 19589130#4 1072269112#0 178028203#1 178028203#2 178028204#1 178028204#3 178028204#4 178028204#9 166142947#1 152839426 -152839428 45875465 679901152#0 206889086#1 152839448#0 541676219 318210389#0 52080655#1 318210394"/>
    </vehicle>
    <vehicle id="49" depart="50464.63">
        <route edges="178028204#1 178028204#3 178028204#4 178028204#9 166142947#1 152839426 -152839428 45875465 679901152#0 72230304#1 461514282#0 461514282#1"/>
    </vehicle>
    <vehicle id="50" depart="50467.99">
        <route edges="-23925122#1 23925119#3 40191606 414563781 318210357#0 -679901152#1 -45875465 152839428 -152839426 -166142947#1 -178028204#9 -178028204#4 -178028204#3 -178028204#1 -178028203#2 -178028203#1 20554351 178028209#1 515064249 20554335 20554204#0 20554204#1 -61422979#1"/>
    </vehicle>
    <vehicle id="51" depart="50471.35">
        <route edges="-E0 11389403#1 11389403#2 11389403#3 147053824#1 147053824#2 147053824#3 147053824#4 147053824#5 1072269113 1072269112#0 178028203#1 178028203#2 178028204#1 178028204#3 178028204#4 178028204#9 166142947#1 152839426 -152839428 45875465 679901152#0 72230304#1 461514282#0"/>
    </vehicle>
    <vehicle id="52" depart="50474.71">
        <route edges="-23913522#1 -23913522#0 -11391856#2 147053824#1 147053824#2 147053824#3 147053824#4 147053824#5 1072269113 1072269112#0 178028203#1 178028203#2 178028204#1 178028204#3 178028204#4 23913525#0 23913525#1 23913525#4"/>
    </vehicle>
    <vehicle id="53" depart="50478.07">
        <route edges="-23925122#1 23925119#3 40191606 414563781 318210357#0 -679901152#1 -45875465 152839428 -152839426 -166142947#1 -178028204#9 23913525#0 23913525#1 23913525#4"/>
    </vehicle>
    <vehicle id="54" depart="50481.43">
        <route edges="19589130#2 19589130#3 19589130#4 1072269112#0 178028203#1 178028203#2 178028204#1 178028204#3 178028204#4 178028204#9 166142947#1 152839426 -152839428 45875465 679901152#0 206889086#1 152839448#0 541676219 318210389#0 52080655#1 318210394"/>
    </vehicle>
    <vehicle id="55" depart="50484.79">
        <route edges="-20553007#1 140964905#5 187123053#3 187123053#4 187123053#5 187123053#6 -152839426 -166142947#1 -178028204#9 -178028204#4 -178028204#3 -178028204#1 -178028203#2 -178028203#1 20554351 178028209#1 515064249 20554335 20554204#0 20554204#1 -61422979#1"/>
    </vehicle>
    <vehicle id="56" depart="50488.15">
        <route edges="61422979#1 20554204#2 20554204#3 178028206#1 178028206#2 -178028203#2 -178028203#1 -1072269112#0 -1072269113 -147053824#5 -147053824#4 -147053824#3 -147053824#2 -147053824#1 11391856#2 23913522#0 23913522#1"/>
    </vehicle>
    <vehicle id="57" depart="50491.51">
        <route edges="61422979#1 20554204#2 20554204#3 178028206#1 178028206#2 178028204#1 178028204#3 178028204#4 178028204#9 166142947#1 152839426 -152839428 45875465 679901152#0 40191607#2 40191607#3 40191607#4 40191607#5 40191607#6 20552644#2"/>
    </vehicle>
    <vehicle id="58" depart="50494.87">
        <route edges="-23913522#1 -23913522#0 -11391856#2 147053824#1 147053824#2 147053824#3 147053824#4 147053824#5 1072269113 1072269112#0 20554351 178028209#1 515064249 20554335 20554204#0 20554204#1 -61422979#1"/>
    </vehicle>
    <vehicle id="59" depart="50498.23">
        <route edges="143308549#0 976351540#1 52036180#5 -679901152#1 -45875465 152839428 -152839426 -166142947#1 -178028204#9 -178028204#4 -178028204#3 -178028204#1 -178028203#2 -178028203#1 -1072269112#0 -1072269113 -147053824#5 -147053824#4 -147053824#3 -147053824#2 -147053824#1 11391856#2 11391856#3 19585417#0"/>
    </vehicle>
    <vehicle id="60" depart="50501.59">
        <route edges="61422979#1 20554204#2 20554204#3 178028206#1 178028206#2 -178028203#2 -178028203#1 -1072269112#0 -1072269113 -147053824#5 -147053824#4 -147053824#3 -147053824#2 -147053824#1 11391856#2 23913522#0"/>
    </vehicle>
    <vehicle id="61" depart="50504.95">
        <route edges="61422979#1 20554204#2 20554204#3 178028206#1 178028206#2 178028204#1 178028204#3 178028204#4 178028204#9 166142947#1 152839426 -152839428 45875465 679901152#0 206889086#1 152839448#0 541676219 318210389#0 142575672#2 142575695#1 142575695#2 142575695#3"/>
    </vehicle>
    <vehicle id="62" depart="50508.31">
        <route edges="-20553007#1 140964905#5 187123053#3 187123053#4 187123053#5 187123053#6 -152839426 -166142947#1 -178028204#9 -178028204#4 -178028204#3 -178028204#1 -178028203#2 -178028203#1 -1072269112#0 -1072269113 -147053824#5 -147053824#4 -147053824#3 -147053824#2 -147053824#1 -11389403#3 -11389403#2 -11389403#1 E0"/>
    </vehicle>
    <vehicle id="63" depart="50511.67">
        <route edges="-35554226#2 -35554226#1 147053824#4 147053824#5 1072269113 1072269112#0 178028203#1 178028203#2 178028204#1 178028204#3 178028204#4 178028204#9 166142947#1 152839426 -152839428 45875465 679901152#0 206889086#1 152839448#0 541676219 318210389#0 52080655#1 318210394"/>
    </vehicle>
    <vehicle id="64" depart="50515.03">
        <route edges="976351540#1 52036180#5 -679901152#1 -45875465 152839428 -152839426 -166142947#1 -178028204#9 -178028204#4 -178028204#3 -178028204#1 -178028203#2 -178028203#1 -1072269112#0 -1072269113 -147053824#5 -147053824#4 -147053824#3 -147053824#2 -147053824#1 11391856#2 23913522#0 23913522#1"/>
    </vehicle>
    <vehicle id="65" depart="50518.39">
        <route edges="61422979#1 20554204#2 20554204#3 178028206#1 178028206#2 -178028203#2 -178028203#1 -1072269112#0 -1072269113 -147053824#5 -147053824#4 -147053824#3 -147053824#2 -147053824#1 11391856#2 23913522#0 23913522#1"/>
    </vehicle>
    <vehicle id="66" depart="50521.75">
        <route edges="-23913525#4 -23913525#1 -23913525#0 178028204#9 166142947#1 152839426 -152839428 45875465 679901152#0 206889086#1 152839448#0 541676219 318210389#0 670062912#1"/>
    </vehicle>
    <vehicle id="67" depart="50525.11">
        <route edges="143308549#0 976351540#1 52036180#5 -679901152#1 -45875465 152839428 -152839426 -166142947#1 -178028204#9 23913525#0 23913525#1 23913525#4"/>
    </vehicle>
    <vehicle id="68" depart="50528.47">
        <route edges="-E0 11389403#1 11389403#2 11389403#3 147053824#1 147053824#2 147053824#3 147053824#4 147053824#5 1072269113 -19589130#4 -19589130#3 19589130#3 19589130#4 -1072269113 -147053824#5 -147053824#4"/>
    </vehicle>
    <vehicle id="69" depart="50531.83">
        <route edges="153021549#0 153021549#1 -149611526#1 -149611526#0 -166142951#1 -166142951#0 -1066221582 -1066221787 -1066222296#1 -1066222296#0 -137534616 25771472#0 -140964907#3 -140964907#2 -140964907#1 -147053824#5 -147053824#4 -147053824#3 -147053824#2 -147053824#1 -11389403#3 -11389403#2 -11389403#1 E0"/>
    </vehicle>
    <vehicle id="70" depart="50535.19">
        <route edges="140964910#2 140964910#3 147053824#5 1072269113 1072269112#0 178028203#1 178028203#2 178028204#1 178028204#3 178028204#4 178028204#9 166142947#1 152839426 -152839428 45875465 679901152#0 40191607#2 40191607#3 140964905#2 20553007#1"/>
    </vehicle>
    <vehicle id="71" depart="50538.55">
        <route edges="-23913525#4 -23913525#1 -23913525#0 178028204#9 166142947#1 152839426 -152839428 45875465 679901152#0 72230304#1 461514282#0 461514282#1"/>
    </vehicle>
    <vehicle id="72" depart="50541.91">
        <route edges="-23913525#4 -23913525#1 -23913525#0 178028204#9 166142947#1 152839426 -152839428 45875465 679901152#0 206889086#1 152839448#0 541676219 318210389#0 670062912#1"/>
    </vehicle>
    <vehicle id="73" depart="50545.27">
        <route edges="-318210394 -52080655#2 976351540#1 52036180#5 -679901152#1 -45875465 152839428 -152839426 -166142947#1 -178028204#9 -140964924"/>
    </vehicle>
    <vehicle id="74" depart="50548.63">
        <route edges="153021549#0 153021549#1 -149611526#1 -149611526#0 -166142951#1 -166142951#0 -1066221582 -1066221787 -1066222296#1 -1066222296#0 -137534616 25771472#0 -140964907#3 -140964907#2 -140964907#1 -147053824#5 -147053824#4 -147053824#3 -147053824#2 -147053824#1 -11389403#3 -11389403#2 -11389403#1 E0"/>
    </vehicle>
    <vehicle id="75" depart="50551.99">
        <route edges="-23925122#1 23925119#3 40191606 414563781 318210357#0 -679901152#1 -45875465 152839428 -152839426 -166142947#1 -178028204#9 -178028204#4 -178028204#3 -178028204#1 -178028203#2 -178028203#1 -1072269112#0 -1072269113 -147053824#5 -147053824#4 -147053824#3 -147053824#2 -147053824#1 11391856#2 23913522#0 23913522#1"/>
    </vehicle>
    <vehicle id="76" depart="50555.35">
        <route edges="-23913525#4 -23913525#1 -23913525#0 -178028204#4 -178028204#3 -178028204#1 -178028203#2 -178028203#1 -1072269112#0 -1072269113 -147053824#5 -147053824#4 -147053824#3 -147053824#2 -147053824#1 -11389403#3 -11389403#2 -11389403#1 E0"/>
    </vehicle>
    <vehicle id="77" depart="50558.71">
        <route edges="153021549#0 153021549#1 -149611526#1 -149611526#0 -166142951#1 -166142951#0 -1066221582 -1066221787 -1066222296#1 -1066222296#0 -137534616 25771472#0 -140964907#3 -140964907#2 -140964907#1 -147053824#5 -147053824#4 -147053824#3 -147053824#2 -147053824#1 11391856#2 23913522#0 23913522#1"/>
    </vehicle>
    <vehicle id="78" depart="50562.07">
        <route edges="178028204#4 178028204#9 166142947#1 152839426 -152839428 45875465 679901152#0 72230304#1 461514282#0 461514282#1"/>
    </vehicle>
    <vehicle id="79" depart="50565.43">
        <route edges="-23788323 -1066222296#0 -137534616 25771472#0 -140964907#3 -140964907#2 -140964907#1 -147053824#5 -147053824#4 -147053824#3 -147053824#2 -147053824#1 11391856#2 23913522#0 23913522#1"/>
    </vehicle>
    <vehicle id="80" depart="50568.79">
        <route edges="-23913525#4 -23913525#1 -23913525#0 178028204#9 166142947#1 152839426 -152839428 45875465 679901152#0 206889086#1 152839448#0 541676219 318210389#0 142575672#2 142575695#1 142575695#2 142575695#3"/>
    </vehicle>
    <vehicle id="81" depart="50572.15">
        <route edges="-147053824#3 -147053824#2 -147053824#1 -11389403#3 11389403#3 147053824#1 147053824#2 147053824#3 147053824#4 147053824#5 1072269113 1072269112#0 178028203#1 178028203#2 178028204#1 178028204#3 178028204#4 178028204#9 166142947#1 152839426 -152839428 45875465 679901152#0 206889086#1 152839448#0 541676219 318210389#0 142575672#2 142575695#1 142575695#2 142575695#3"/>
    </vehicle>
    <vehicle id="82" depart="50575.51">
        <route edges="-23913525#4 -23913525#1 -23913525#0 -178028204#4 -178028204#3 -178028204#1 -178028203#2 -178028203#1 -1072269112#0 -1072269113 -147053824#5 -147053824#4 -147053824#3 -147053824#2 -147053824#1 -11389403#3 -11389403#2 -11389403#1 E0"/>
    </vehicle>
    <vehicle id="83" depart="50578.87">
        <route edges="61422979#1 20554204#2 20554204#3 178028206#1 178028206#2 178028204#1 178028204#3 178028204#4 178028204#9 166142947#1 152839426 -152839428 45875465 679901152#0 72230304#1 461514282#0 461514282#1"/>
    </vehicle>
    <vehicle id="84" depart="50582.23">
        <route edges="153021549#0 153021549#1 -149611526#1 -149611526#0 -166142951#1 -166142951#0 -1066221582 -1066221787 -1066222296#1 -1066222296#0 -137534616 25771472#0 -140964907#3 -140964907#2 -140964907#1 -147053824#5 -147053824#4 -147053824#3 -147053824#2 -147053824#1 11391856#2 23913522#0 23913522#1"/>
    </vehicle>
    <vehicle id="85" depart="50585.59">
        <route edges="61422979#1 20554204#2 20554204#3 178028206#1 178028206#2 -178028203#2 -178028203#1 -1072269112#0 -1072269113 -147053824#5 -147053824#4 -147053824#3 -147053824#2 -147053824#1 11391856#2 23913522#0"/>
    </vehicle>
    <vehicle id="86" depart="50588.95">
        <route edges="178028204#4 178028204#9 166142947#1 152839426 -152839428 45875465 679901152#0 72230304#1 461514282#0 461514282#1"/>
    </vehicle>
    <vehicle id="87" depart="50592.31">
        <route edges="-23913523#5 -23913523#4 140964927#4 147053824#4 147053824#5 1072269113 1072269112#0 178028203#1 178028203#2 178028204#1 178028204#3 178028204#4 178028204#9 166142947#1 152839426 -187123053#6 -187123053#5 -187123053#4 -187123053#3 -187123053#0"/>
    </vehicle>
    <vehicle id="88" depart="50595.67">
        <route edges="-23913522#1 -23913522#0 -11391856#2 147053824#1 147053824#2 147053824#3 147053824#4 147053824#5 1072269113 1072269112#0 178028203#1 178028203#2 178028204#1 178028204#3 178028204#4 178028204#9 166142947#1 152839426 -152839428 45875465 679901152#0 40191607#2 40191607#3 40191607#4 40191607#5 40191607#6 20552644#2"/>
    </vehicle>
    <vehicle id="89" depart="50599.03">
        <route edges="-23913525#4 -23913525#1 -23913525#0 178028204#9 166142947#1 152839426 -152839428 45875465 679901152#0 206889086#1 152839448#0 541676219 318210389#0 142575672#2 142575695#1 142575695#2 142575695#3"/>
    </vehicle>
    <vehicle id="90" depart="50602.39">
        <route edges="-23913525#4 -23913525#1 -23913525#0 178028204#9 166142947#1 152839426 -152839428 45875465 679901152#0 72230304#1 461514282#0 461514282#1"/>
    </vehicle>
    <vehicle id="91" depart="50605.75">
        <route edges="187123033#1 187123053#3 187123053#4 187123053#5 187123053#6 -152839426 -166142947#1 -178028204#9 -178028204#4 -178028204#3 -178028204#1 -178028203#2 -178028203#1 -1072269112#0 -1072269113 -147053824#5 -147053824#4 -147053824#3 -146511475#0"/>
    </vehicle>
    <vehicle id="92" depart="50609.11">
        <route edges="-23913525#4 -23913525#1 -23913525#0 178028204#9 166142947#1 152839426 -152839428 45875465 679901152#0 72230304#1 461514282#0 461514282#1"/>
    </vehicle>
    <vehicle id="93" depart="50612.47">
        <route edges="-23913522#1 -23913522#0 -11391856#2 147053824#1 147053824#2 147053824#3 147053824#4 147053824#5 1072269113 1072269112#0 178028203#1 178028203#2 178028204#1 178028204#3 178028204#4 178028204#9 -178028204#9"/>
    </vehicle>
    <vehicle id="94" depart="50615.83">
        <route edges="143308549#0 976351540#1 52036180#5 -679901152#1 -45875465 152839428 -152839426 -166142947#1 -178028204#9 -178028204#4 -178028204#3 -178028204#1 -178028203#2 -178028203#1 20554351 178028209#1 515064249 20554335 20554204#0 20554204#1 -61422979#1"/>
    </vehicle>
    <vehicle id="95" depart="50619.19">
        <route edges="-318210373#3 -318210373#1 -318210373#0 -142575672#4 -142575672#3 976351540#1 52036180#5 -679901152#1 -45875465 152839428 -152839426 -166142947#1 -178028204#9 -178028204#4 -178028204#3 -178028204#1 -178028203#2 -178028203#1 -1072269112#0 -1072269113 -147053824#5 -147053824#4 -147053824#3 -147053824#2 -147053824#1 -11389403#3 -11389403#2 -11389403#1 E0"/>
    </vehicle>
    <vehicle id="96" depart="50622.55">