<?xml version="1.0" encoding="UTF-8"?>

<!-- generated on 2023-06-08 12:44:10.519143 by routeSampler.py v1_17_0+0849-cd672b799e5
<configuration>
    <route-files value="osm.passenger.rou.xml"/>
    <turn-ratio-files value="turn_ratio.xml"/>
    <edgedata-files value="edge_data_cars.xml"/>
    <turn-ratio-attribute value="ratio"/>
    <output-file value="samplertrips.rou.xml"/>
    <mismatch-output value="mismatch.xml"/>
</configuration>
-->

<routes xmlns:xsi="http://www.w3.org/2001/XMLSchema-instance" xsi:noNamespaceSchemaLocation="http://sumo.dlr.de/xsd/routes_file.xsd">
<!-- begin="50300.0" end="54100.0" -->
    <vehicle id="0" depart="50300.00">
        <route edges="-11391856#3 -11391856#2 147053824#1 147053824#2 147053824#3 147053824#4 147053824#5 1072269113 1072269112#0 178028203#1 178028203#2 178028204#1 178028204#3 178028204#4 178028204#9 166142947#1 152839426"/>
    </vehicle>
    <vehicle id="1" depart="50301.45">
        <route edges="976351540#1 52036180#5 -679901152#1 -45875465 152839428 -152839426 -166142947#1 -178028204#9 -178028204#4 -178028204#3 -178028204#1"/>
    </vehicle>
    <vehicle id="2" depart="50302.90">
        <route edges="-1066222296#1 -1066222296#0 -137534616 25771472#0 -140964907#3 -140964907#2 -140964907#1 -147053824#5 -147053824#4 -147053824#3 -147053824#2 -147053824#1 -11389403#3"/>
    </vehicle>
    <vehicle id="3" depart="50304.35">
        <route edges="-23913525#1 -23913525#0 -178028204#4 -178028204#3 -178028204#1 -178028203#2 -178028203#1 -1072269112#0 -1072269113 -147053824#5 -147053824#4 -147053824#3 -147053824#2 -147053824#1 -11389403#3 -11389403#2"/>
    </vehicle>
    <vehicle id="4" depart="50305.80">
        <route edges="140964927#3 140964927#4 147053824#4 147053824#5 1072269113 1072269112#0 140964915#0 140964915#1 140964915#2 137534616 1066222296#0 1066222296#1 1066221786 1066221582 20553068#0"/>
    </vehicle>
    <vehicle id="5" depart="50307.25">
        <route edges="-25771472#0 137534616 1066222296#0 1066222296#1 1066221786 1066221582 20553068#0 20553068#1 20553068#2 20553068#3 166142947#1 152839426 -152839428 45875465"/>
    </vehicle>
    <vehicle id="6" depart="50308.71">
        <route edges="-23913525#0 178028204#9 166142947#1 152839426 -152839428 45875465 679901152#0 206889086#1 152839448#0 541676219 318210389#0 142575672#2 142575672#4"/>
    </vehicle>
    <vehicle id="7" depart="50310.16">
        <route edges="11389403#3 11391856#2 11391856#3 19585417#0"/>
    </vehicle>
    <vehicle id="8" depart="50311.61">
        <route edges="153021549#0 153021549#1 -149611526#1 -149611526#0 -166142951#1 -166142951#0 -1066221582 -1066221787 -1066222296#1 -1066222296#0 -137534616 25771472#0 -140964907#3 -140964907#2 -140964907#1 -147053824#5 -147053824#4 -147053824#3 -147053824#2 -147053824#1 11391856#2 23913522#0"/>
    </vehicle>
    <vehicle id="9" depart="50313.06">
        <route edges="-20553068#0 -1066221582 -1066221787 -1066222296#1 23788323 -178028204#3 -178028204#1 -178028203#2 -178028203#1 140964915#0 140964915#1 140964915#2"/>
    </vehicle>
    <vehicle id="10" depart="50314.51">
        <route edges="-318210394 -52080655#2 976351540#1 52036180#5 -679901152#1 -45875465 152839428 -152839426 -166142947#1 -178028204#9 -178028204#4 -178028204#3 -178028204#1 -178028203#2 -178028203#1 -1072269112#0 -19589130#4 -19589130#3 -23913523#5"/>
    </vehicle>
    <vehicle id="11" depart="50315.96">
        <route edges="-23913525#0 -178028204#4 -178028204#3 -178028204#1 -178028203#2 -178028203#1 -1072269112#0 -1072269113 -147053824#5"/>
    </vehicle>
    <vehicle id="12" depart="50317.41">
        <route edges="-E0 11389403#1 11389403#2 11389403#3 11391856#2 23913522#0"/>
    </vehicle>
    <vehicle id="13" depart="50318.86">
        <route edges="140964915#2 137534616 1066222296#0 1066222296#1 1066221786 1066221582 166142951#0 166142951#1 149611526#0 149611526#1 1102336903#0 40191606 414563781 318210357#0 -679901152#1 -45875465 152839428 -152839426 -166142947#1"/>
    </vehicle>
    <vehicle id="14" depart="50320.31">
        <route edges="148803147#2 148803147#3 1093549448#2 1093549489#1 1093549550#1 146511475#0 147053824#3 147053824#4 147053824#5 1072269113 1072269112#0 178028203#1 178028203#2 178028204#1"/>
    </vehicle>
    <vehicle id="15" depart="50321.76">
        <route edges="140964924 178028204#9 166142947#1 152839426 -152839428 45875465 679901152#0 206889086#1 152839448#0 541676219 318210389#0 142575672#2 142575672#4 318210373#0"/>
    </vehicle>
    <vehicle id="16" depart="50323.21">
        <route edges="-E0 11389403#1 11389403#2 11389403#3 147053824#1"/>
    </vehicle>
    <vehicle id="17" depart="50324.67">
        <route edges="-23913523#4 140964927#4 147053824#4 147053824#5 1072269113 1072269112#0 178028203#1 178028203#2 178028204#1 178028204#3 178028204#4 178028204#9"/>
    </vehicle>
    <vehicle id="18" depart="50326.12">
        <route edges="25771472#1 140964910#1 140964910#2 140964910#3 147053824#5 1072269113 1072269112#0 178028203#1 178028203#2 178028204#1 178028204#3"/>
    </vehicle>
    <vehicle id="19" depart="50327.57">
        <route edges="-19585417#0 -11391856#3 -11391856#2 147053824#1 147053824#2 147053824#3 35554226#1 35554226#2 35554226#3 35554229#0"/>
    </vehicle>
    <vehicle id="20" depart="50329.02">
        <route edges="147053824#5 1072269113 1072269112#0 178028203#1 178028203#2 178028204#1 178028204#3 178028204#4 178028204#9 166142947#1 152839426 -152839428 45875465 679901152#0 40191607#2 40191607#3 40191607#4 40191607#5 40191607#6 20552644#2"/>
    </vehicle>
    <vehicle id="21" depart="50330.47">
        <route edges="23913523#3 140964927#4 147053824#4 147053824#5 1072269113 1072269112#0 178028203#1 178028203#2 149611534#0 149611534#1"/>
    </vehicle>
    <vehicle id="22" depart="50331.92">
        <route edges="140964924 178028204#9 166142947#1 152839426 -152839428 45875465 679901152#0 40191607#2 40191607#3 40191607#4"/>
    </vehicle>
    <vehicle id="23" depart="50333.37">
        <route edges="-35554229#0 -35554226#3 -35554226#2 -35554226#1 147053824#4 147053824#5 1072269113 1072269112#0 178028203#1 178028203#2 178028204#1 178028204#3 178028204#4 -140964924"/>
    </vehicle>
    <vehicle id="24" depart="50334.82">
        <route edges="19585417#1 19589130#2 19589130#3 19589130#4 1072269112#0 140964915#0 140964915#1 140964915#2 137534616 1066222296#0 1066222296#1 1066221786 1066221582 166142951#0 166142951#1 149611511#0 149611511#1"/>
    </vehicle>
    <vehicle id="25" depart="50336.27">
        <route edges="20553068#3 -178028204#9 -178028204#4 -178028204#3 -178028204#1 -178028203#2 -178028203#1 140964915#0 140964915#1 140964915#2"/>
    </vehicle>
    <vehicle id="26" depart="50337.72">
        <route edges="20553068#0 20553068#1 20553068#2 20553068#3 -178028204#9 -178028204#4 -178028204#3 -178028204#1 -178028203#2 -178028203#1 -1072269112#0 -1072269113 -147053824#5 -147053824#4 -147053824#3 -147053824#2"/>
    </vehicle>
    <vehicle id="27" depart="50339.18">
        <route edges="976351540#1 52036180#5 -679901152#1 -45875465 152839428 -152839426 -166142947#1 -178028204#9 -178028204#4 -23788323"/>
    </vehicle>
    <vehicle id="28" depart="50340.63">
        <route edges="-147053824#4 -140964927#4 -140964927#3 -140964927#2 -19585417#0"/>
    </vehicle>
    <vehicle id="29" depart="50342.08">
        <route edges="140964924 -178028204#4 -178028204#3 -178028204#1 -178028203#2 -178028203#1 20554351"/>
    </vehicle>
    <vehicle id="30" depart="50343.53">
        <route edges="140964924 -178028204#4 -178028204#3 -178028204#1 -178028203#2 -178028203#1 -1072269112#0 -1072269113 -147053824#5 -147053824#4 -140964927#4 23913523#4 23913523#5"/>
    </vehicle>
    <vehicle id="31" depart="50344.98">
        <route edges="140964927#3 140964927#4 147053824#4 147053824#5 1072269113 1072269112#0 20554351 20554168"/>
    </vehicle>
    <vehicle id="32" depart="50346.43">
        <route edges="318210354#0 -679901152#1 -45875465 152839428 -152839426 -166142947#1 -178028204#9 -178028204#4 -23788323"/>
    </vehicle>
    <vehicle id="33" depart="50347.88">
        <route edges="148803147#3 1093549448#2 1093549489#1 1093549550#1 146511475#0 147053824#3 147053824#4 147053824#5 1072269113 1072269112#0 178028203#1 178028203#2 149611534#0"/>
    </vehicle>
    <vehicle id="34" depart="50349.33">
        <route edges="-149611534#0 178028204#1 178028204#3 178028204#4 178028204#9 166142947#1 152839426 24152326#0 24152326#1 23925124#0 23925124#1 23925124#2 -166142951#1"/>
    </vehicle>
    <vehicle id="35" depart="50350.78">
        <route edges="25771472#0 -140964907#3 -140964907#2 -140964907#1 -147053824#5 -147053824#4 -147053824#3 -147053824#2 -147053824#1 -11389403#3"/>
    </vehicle>
    <vehicle id="36" depart="50352.23">
        <route edges="20553068#0 20553068#1 20553068#2 20553068#3 166142947#1 152839426 -152839428 45875465 679901152#0 40191607#2 40191607#3 40191607#4 40191607#5 40191607#6"/>
    </vehicle>
    <vehicle id="37" depart="50353.68">
        <route edges="140964924 -178028204#4 -178028204#3 -178028204#1 -178028203#2 -178028203#1 -1072269112#0 -1072269113 -147053824#5 -147053824#4 -147053824#3 -147053824#2"/>
    </vehicle>
    <vehicle id="38" depart="50355.14">
        <route edges="-149611534#0 178028204#1 178028204#3 178028204#4 23913525#0 23913525#1 -140964905#8"/>
    </vehicle>
    <vehicle id="39" depart="50356.59">
        <route edges="140964927#4 147053824#4 -140964910#3 -140964910#2 -140964910#1"/>
    </vehicle>
    <vehicle id="40" depart="50358.04">
        <route edges="-20553068#0 -1066221582 -1066221787 -1066222296#1 -1066222296#0 -137534616 25771472#0 -140964907#3 -140964907#2 -140964907#1 -147053824#5 -147053824#4 -147053824#3 -147053824#2"/>
    </vehicle>
    <vehicle id="41" depart="50359.49">
        <route edges="-1066221582 -1066221787 -1066222296#1 -1066222296#0 -137534616 25771472#0 -140964907#3 -140964907#2 -140964907#1 -147053824#5 -147053824#4 -147053824#3 -147053824#2 -147053824#1 -11389403#3 -11389403#2 -11389403#1 E0"/>
    </vehicle>
    <vehicle id="42" depart="50360.94">
        <route edges="-23913525#1 -23913525#0 -178028204#4 -178028204#3 -178028204#1 -178028203#2 -178028203#1 -1072269112#0 -1072269113 -147053824#5 -147053824#4 -147053824#3 -147053824#2 -147053824#1 11391856#2 11391856#3 19585417#0"/>
    </vehicle>
    <vehicle id="43" depart="50362.39">
        <route edges="25771472#1 140964910#1 140964910#2 140964910#3 -147053824#4 -147053824#3 -147053824#2 -147053824#1 -11389403#3 -11389403#2 -11389403#1 E0"/>
    </vehicle>
    <vehicle id="44" depart="50363.84">
        <route edges="-E0 11389403#1 11389403#2 11389403#3 147053824#1 147053824#2 -146511475#0 -1093549550#1 -1093549550#0 20553444 -35554229#1 -35554229#0"/>
    </vehicle>
    <vehicle id="45" depart="50365.29">
        <route edges="-178028204#4 -178028204#3 -178028204#1 -178028203#2 -178028203#1 140964915#0 140964915#1 140964915#2"/>
    </vehicle>
    <vehicle id="46" depart="50366.74">
        <route edges="318210354#0 -679901152#1 -45875465 152839428 -152839426 -166142947#1 -178028204#9 -178028204#4 -178028204#3 -178028204#1 -178028203#2 -178028203#1 -1072269112#0 -1072269113 -147053824#5 -147053824#4 -147053824#3 -147053824#2"/>
    </vehicle>
    <vehicle id="47" depart="50368.19">
        <route edges="-149611526#0 -166142951#1 -166142951#0 -1066221582 -1066221787 -1066222296#1 23788323 -178028204#3 -178028204#1 149611534#0 149611534#1"/>
    </vehicle>
    <vehicle id="48" depart="50369.64">
        <route edges="-147053824#1 -11389403#3 -11389403#2"/>
    </vehicle>
    <vehicle id="49" depart="50371.10">
        <route edges="-149611534#0 -178028203#2 -178028203#1 -1072269112#0 -1072269113 -147053824#5 -147053824#4"/>
    </vehicle>
    <vehicle id="50" depart="50372.55">
        <route edges="149611534#0 149611534#1 -137534616 25771472#0 -140964907#3 -140964907#2 -140964907#1 -147053824#5 -147053824#4 -147053824#3 -147053824#2 -147053824#1 -11389403#3"/>
    </vehicle>
    <vehicle id="51" depart="50374.00">
        <route edges="178028204#4 178028204#9 166142947#1 152839426 24152326#0 24152326#1 23925124#0 23925119#1 23925119#3 40191606 414563781 318210357#0"/>
    </vehicle>
    <vehicle id="52" depart="50375.45">
        <route edges="1102336903#0 40191606 414563781 318210357#0 -679901152#1 -45875465 152839428 -152839426 -166142947#1 -178028204#9"/>
    </vehicle>
    <vehicle id="53" depart="50376.90">
        <route edges="11389403#3 147053824#1 147053824#2 147053824#3 147053824#4 147053824#5 140964907#1 140964907#2 140964907#3 25771472#1"/>
    </vehicle>
    <vehicle id="54" depart="50378.35">
        <route edges="-140964907#3 -140964907#2 -140964907#1 -147053824#5 -147053824#4 -147053824#3 -147053824#2 -147053824#1 -11389403#3 -11389403#2 -11389403#1 E0"/>
    </vehicle>
    <vehicle id="55" depart="50379.80">
        <route edges="152839426 24152326#0 24152326#1 23925124#0 23925124#1 23925124#2 -166142951#1 -166142951#0 -1066221582 -1066221787 -1066222296#1 -1066222296#0 -137534616 25771472#0 25771472#1 25771472#2 35554229#0 35554229#1 35215636 1093549489#1"/>
    </vehicle>
    <vehicle id="56" depart="50381.25">
        <route edges="-149611534#1 -149611534#0 -178028203#2 -178028203#1 -1072269112#0 -1072269113 -147053824#5 -140964910#3 -140964910#2 -140964910#1 25771472#2"/>
    </vehicle>
    <vehicle id="57" depart="50382.70">
        <route edges="-178028204#9 -178028204#4 -178028204#3 -178028204#1 -178028203#2 -178028203#1 -1072269112#0 -1072269113 -147053824#5 -147053824#4 -147053824#3 -147053824#2 -147053824#1"/>
    </vehicle>
    <vehicle id="58" depart="50384.15">
        <route edges="140964927#4 147053824#4 -140964910#3 -140964910#2 -140964910#1"/>
    </vehicle>
    <vehicle id="59" depart="50385.61">
        <route edges="318210354#0 -679901152#1 -45875465 152839428 -152839426 -166142947#1 -178028204#9 -178028204#4 -178028204#3 -178028204#1 149611534#0"/>
    </vehicle>
    <vehicle id="60" depart="50387.06">
        <route edges="25771472#2 -35554226#3 -35554226#2 -35554226#1 147053824#4 147053824#5 1072269113 1072269112#0 178028203#1 178028203#2 178028204#1"/>
    </vehicle>
    <vehicle id="61" depart="50388.51">
        <route edges="19589130#2 19589130#3 19589130#4 1072269112#0 178028203#1 178028203#2 178028204#1 178028204#3 178028204#4 178028204#9 166142947#1 152839426 -152839428 45875465 679901152#0 206889086#1"/>
    </vehicle>
    <vehicle id="62" depart="50389.96">
        <route edges="23925124#1 23925124#2 -166142951#1 -166142951#0 -1066221582 -1066221787 -1066222296#1 -1066222296#0 -137534616 25771472#0 -140964907#3 -140964907#2 -140964907#1 -147053824#5 -147053824#4 -140964927#4"/>
    </vehicle>
    <vehicle id="63" depart="50391.41">
        <route edges="-178028204#4 -178028204#3 -178028204#1 -178028203#2 -178028203#1 140964915#0 140964915#1 140964915#2"/>
    </vehicle>
    <vehicle id="64" depart="50392.86">
        <route edges="52036180#5 -679901152#1 -45875465 152839428 -152839426 -166142947#1 -178028204#9"/>
    </vehicle>
    <vehicle id="65" depart="50394.31">
        <route edges="-187123053#3 140964905#8 -23913525#1 -23913525#0 -178028204#4 -178028204#3 -178028204#1 -178028203#2 -178028203#1 -1072269112#0 -1072269113 -147053824#5 -147053824#4 -147053824#3 -147053824#2 -147053824#1"/>
    </vehicle>
    <vehicle id="66" depart="50395.76">
        <route edges="-19585417#1 140964927#2 140964927#3 140964927#4 147053824#4 147053824#5 1072269113 1072269112#0 178028203#1 178028203#2 178028204#1 178028204#3 178028204#4 178028204#9 166142947#1 152839426 -152839428 45875465 679901152#0 206889086#1 152839448#0 541676219 318210389#0 670062912#1"/>
    </vehicle>
    <vehicle id="67" depart="50397.21">
        <route edges="140964927#3 140964927#4 147053824#4 147053824#5 1072269113 1072269112#0 178028203#1 178028203#2 178028204#1 178028204#3 178028204#4"/>
    </vehicle>
    <vehicle id="68" depart="50398.66">
        <route edges="-178028204#1 -178028203#2 -178028203#1 -1072269112#0 -1072269113 -147053824#5 -147053824#4 -147053824#3 -147053824#2"/>
    </vehicle>
    <vehicle id="69" depart="50400.11">
        <route edges="25771472#1 140964910#1 140964910#2 140964910#3 -147053824#4 -147053824#3 -147053824#2 -147053824#1 -11389403#3 -11389403#2 -11389403#1 E0"/>
    </vehicle>
    <vehicle id="70" depart="50401.57">
        <route edges="-E0 11389403#1 11389403#2 11389403#3 147053824#1"/>
    </vehicle>
    <vehicle id="71" depart="50403.02">
        <route edges="-1072269112#0 -1072269113 -147053824#5 -147053824#4 -147053824#3 -147053824#2 -147053824#1"/>
    </vehicle>
    <vehicle id="72" depart="50404.47">
        <route edges="-178028204#4 -178028204#3 -178028204#1 -178028203#2 -178028203#1 140964915#0 140964915#1 140964915#2"/>
    </vehicle>
    <vehicle id="73" depart="50405.92">
        <route edges="140964905#2 140964905#5 187123053#3 187123053#4 187123053#5 187123053#6 -152839426 -166142947#1 -178028204#9 -178028204#4 -178028204#3 -178028204#1 -178028203#2 -178028203#1 -1072269112#0 -1072269113 -147053824#5 -147053824#4 -147053824#3 -147053824#2 -147053824#1"/>
    </vehicle>
    <vehicle id="74" depart="50407.37">
        <route edges="-11391856#3 -11391856#2 147053824#1 147053824#2 147053824#3 147053824#4 147053824#5 1072269113 1072269112#0 178028203#1 178028203#2 178028204#1 178028204#3 -23788323"/>
    </vehicle>
    <vehicle id="75" depart="50408.82">
        <route edges="19589130#2 19589130#3 19589130#4 -1072269113 -147053824#5 -147053824#4 -147053824#3 -147053824#2 -147053824#1"/>
    </vehicle>
    <vehicle id="76" depart="50410.27">
        <route edges="-23925122#1 23925119#3 40191606 414563781 318210357#0 -679901152#1 -45875465 152839428 -152839426 -166142947#1 -178028204#9 -178028204#4 -178028204#3 -178028204#1 -178028203#2 -178028203#1 -1072269112#0 -1072269113 -147053824#5 -147053824#4 -140964927#4 -23913523#3 -23913523#2 -23913523#0"/>
    </vehicle>
    <vehicle id="77" depart="50411.72">
        <route edges="-142575672#3 976351540#1 52036180#5 -679901152#1 -45875465 152839428 -152839426 -166142947#1 -20553068#3 -20553068#2 -20553068#1"/>
    </vehicle>
    <vehicle id="78" depart="50413.17">
        <route edges="-178028204#1 -178028203#2 -178028203#1 140964915#0 140964915#1 140964915#2 137534616 1066222296#0 1066222296#1 1066221786 1066221582 166142951#0 166142951#1 -23925124#2 -23925124#1 23925119#1"/>
    </vehicle>
    <vehicle id="79" depart="50414.62">
        <route edges="-137534616 25771472#0 -140964907#3 -140964907#2 -140964907#1 -147053824#5 -147053824#4 -147053824#3 -147053824#2 -147053824#1 -11389403#3"/>
    </vehicle>
    <vehicle id="80" depart="50416.07">
        <route edges="318210358 318210355 318210354#0 -679901152#1 -45875465 152839428 -152839426 -166142947#1 -178028204#9 -178028204#4 -178028204#3 -178028204#1 -178028203#2 -178028203#1 -1072269112#0 -1072269113 -147053824#5 -147053824#4 -147053824#3 -147053824#2 -147053824#1 -11389403#3 -11389403#2"/>
    </vehicle>
    <vehicle id="81" depart="50417.53">
        <route edges="-E0 11389403#1 11389403#2 11389403#3 147053824#1 147053824#2 147053824#3 147053824#4 -140964910#3"/>
    </vehicle>
    <vehicle id="82" depart="50418.98">
        <route edges="-178028204#4 -178028204#3 -178028204#1 -178028203#2 -178028203#1 -1072269112#0 -1072269113 -147053824#5 -147053824#4 -147053824#3 -147053824#2"/>
    </vehicle>
    <vehicle id="83" depart="50420.43">
        <route edges="-147053824#4 35554226#1 35554226#2 35554226#3 -25771472#2 -25771472#1 -25771472#0 137534616 1066222296#0 1066222296#1 1066221786 1066221582"/>
    </vehicle>
    <vehicle id="84" depart="50421.88">
        <route edges="-20553015#1 -20553015#0 20553068#1 20553068#2 20553068#3 -178028204#9 -178028204#4 -178028204#3 -178028204#1 -178028203#2 -178028203#1 20554351"/>
    </vehicle>
    <vehicle id="85" depart="50423.33">
        <route edges="11389403#3 147053824#1 147053824#2 147053824#3 147053824#4 -140964910#3 -140964910#2"/>
    </vehicle>
    <vehicle id="86" depart="50424.78">
        <route edges="-11391856#3 -11391856#2 147053824#1 147053824#2 147053824#3 147053824#4 -140964910#3 -140964910#2"/>
    </vehicle>
    <vehicle id="87" depart="50426.23">
        <route edges="-35554226#2 -35554226#1 -147053824#3 -147053824#2 -147053824#1 -11389403#3 -11389403#2 -11389403#1 E0"/>
    </vehicle>
    <vehicle id="88" depart="50427.68">
        <route edges="-20553015#0 20553068#1 20553068#2 20553068#3 166142947#1 152839426 -152839428 45875465 679901152#0 72230304#1 461514282#0 461514282#1"/>
    </vehicle>
    <vehicle id="89" depart="50429.13">
        <route edges="140964910#2 140964910#3 147053824#5 1072269113 1072269112#0 178028203#1 178028203#2 178028204#1 178028204#3 178028204#4"/>
    </vehicle>
    <vehicle id="90" depart="50430.58">
        <route edges="-1072269112#0 -1072269113 -147053824#5 -147053824#4 -147053824#3 -147053824#2 -147053824#1 -11389403#3 -11389403#2 -11389403#1 E0"/>
    </vehicle>
    <vehicle id="91" depart="50432.04">
        <route edges="-149611534#1 -149611534#0 -178028203#2 -178028203#1 -1072269112#0 -1072269113 -147053824#5 -147053824#4 -147053824#3 -146511475#0 -1093549550#1 -1093549550#0"/>
    </vehicle>
    <vehicle id="92" depart="50433.49">
        <route edges="152839448#0 541676219 318210389#0 976351540#1 52036180#5 -679901152#1 -45875465 152839428 24152326#0 24152326#1 23925124#0 23925124#1 23925124#2 -166142951#1 -166142951#0 -1066221582 -1066221787 -1066222296#1 -1066222296#0 -137534616 25771472#0 25771472#1 25771472#2 -35554226#3"/>
    </vehicle>
    <vehicle id="93" depart="50434.94">
        <route edges="-35554226#3 -35554226#2 -35554226#1 147053824#4 147053824#5 1072269113 1072269112#0 178028203#1 178028203#2 178028204#1 178028204#3 178028204#4 178028204#9 166142947#1 152839426 -152839428 45875465 679901152#0 206889086#1 152839448#0"/>
    </vehicle>
    <vehicle id="94" depart="50436.39">
        <route edges="-1066221582 -1066221787 -1066222296#1 23788323 -178028204#3 -178028204#1 -178028203#2 -178028203#1 20554351 20554168"/>
    </vehicle>
    <vehicle id="95" depart="50437.84">
        <route edges="178028204#4 -140964924 -1066222296#1 -1066222296#0 -137534616 25771472#0 25771472#1 140964910#1 140964910#2"/>
    </vehicle>
    <vehicle id="96" depart="50439.29">
        <route edges="40191606 414563781 318210357#0 -679901152#1 -45875465 152839428 -152839426 -166142947#1 -178028204#9 -178028204#4 -178028204#3 -178028204#1 -178028203#2 -178028203#1 -1072269112#0 -1072269113 -147053824#5 -140964910#3 -140964910#2"/>
    </vehicle>
    <vehicle id="97" depart="50440.74">
        <route edges="-19585417#1 140964927#2 140964927#3 140964927#4 -147053824#3 -147053824#2 -147053824#1 -11389403#3 -11389403#2"/>
    </vehicle>
    <vehicle id="98" depart="50442.19">
        <route edges="318210358 318210355 318210354#0 -679901152#1 -45875465 152839428 -152839426 -166142947#1 -178028204#9 -140964924"/>
    </vehicle>
    <vehicle id="99" depart="50443.64">
        <route edges="140964910#2 140964910#3 147053824#5 1072269113 1072269112#0 178028203#1 178028203#2 178028204#1 178028204#3 178028204#4 178028204#9 166142947#1 152839426 24152326#0 24152326#1 -20553015#1"/>
    </vehicle>
    <vehicle id="100" depart="50445.09">
        <route edges="-178028204#4 -23788323 1066222296#1 1066221786 1066221582 166142951#0 166142951#1 149611526#0 149611526#1 1102336903#0 40191606 414563781 318210357#0 40191607#2 40191607#3 40191607#4"/>
    </vehicle>
    <vehicle id="101" depart="50446.54">
        <route edges="-E0 11389403#1 11389403#2 11389403#3 147053824#1 147053824#2 147053824#3 147053824#4 147053824#5 1072269113 1072269112#0 178028203#1 178028203#2 178028204#1 178028204#3 178028204#4 178028204#9 166142947#1 152839426 -152839428 45875465 679901152#0 206889086#1 152839448#0 541676219 318210389#0 52080655#1"/>
    </vehicle>
    <vehicle id="102" depart="50448.00">
        <route edges="-35554226#2 -35554226#1 147053824#4 147053824#5 1072269113 1072269112#0 178028203#1 178028203#2 178028204#1 178028204#3"/>
    </vehicle>
    <vehicle id="103" depart="50449.45">
        <route edges="19585417#0 140964927#2 140964927#3 140964927#4 147053824#4 147053824#5 1072269113 1072269112#0 140964915#0 140964915#1 140964915#2 137534616 1066222296#0 1066222296#1 1066221786 1066221582 166142951#0 166142951#1 -23925124#2 -23925124#1"/>
    </vehicle>
    <vehicle id="104" depart="50450.90">
        <route edges="-149611526#1 -149611526#0 -166142951#1 -166142951#0 -1066221582 -1066221787 -1066222296#1 -1066222296#0 -137534616 25771472#0 -140964907#3 -140964907#2 -140964907#1 1072269113 -19589130#4 -19589130#3 -23913523#5"/>
    </vehicle>
    <vehicle id="105" depart="50452.35">
        <route edges="-E0 11389403#1 11389403#2 11389403#3 147053824#1"/>
    </vehicle>
    <vehicle id="106" depart="50453.80">
        <route edges="140964905#8 -23913525#1 -23913525#0 -178028204#4 -178028204#3 -178028204#1 -178028203#2 -178028203#1 -1072269112#0 -1072269113 -147053824#5 -140964910#3"/>
    </vehicle>
    <vehicle id="107" depart="50455.25">
        <route edges="318210357#0 -679901152#1 -45875465 152839428 -152839426 -166142947#1 -178028204#9 -178028204#4 -178028204#3 -178028204#1 149611534#0 149611534#1"/>
    </vehicle>
    <vehicle id="108" depart="50456.70">
        <route edges="140964910#2 140964910#3 147053824#5 1072269113 1072269112#0 178028203#1 178028203#2 178028204#1 178028204#3 178028204#4 178028204#9 166142947#1 152839426 -187123053#6 -187123053#5 23913526#0"/>
    </vehicle>
    <vehicle id="109" depart="50458.15">
        <route edges="-1066222296#0 -137534616 25771472#0 -140964907#3 -140964907#2 -140964907#1 -147053824#5 -147053824#4 -147053824#3 -147053824#2 -147053824#1 11391856#2 11391856#3"/>
    </vehicle>
    <vehicle id="110" depart="50459.60">
        <route edges="-23913523#0 -11391856#2 147053824#1 147053824#2 147053824#3 147053824#4 147053824#5 1072269113 1072269112#0 178028203#1 178028203#2 178028204#1 178028204#3 178028204#4 178028204#9 166142947#1 152839426 -152839428 45875465 679901152#0 72230304#1 461514282#0"/>
    </vehicle>
    <vehicle id="111" depart="50461.05">
        <route edges="23913523#4 23913523#5 19589130#3 19589130#4 1072269112#0 178028203#1 178028203#2 178028204#1 178028204#3 178028204#4 178028204#9 166142947#1 152839426 -152839428 45875465 679901152#0 72230304#1 461514282#0"/>
    </vehicle>
    <vehicle id="112" depart="50462.50">
        <route edges="-142575672#4 -142575672#3 976351540#1 52036180#5 -679901152#1 -45875465 152839428 -152839426 -166142947#1 -178028204#9 -178028204#4 -178028204#3 -178028204#1 -178028203#2 -178028203#1 -1072269112#0 -1072269113 -147053824#5 -147053824#4 -147053824#3 -147053824#2"/>
    </vehicle>
    <vehicle id="113" depart="50463.96">
        <route edges="143308549#0 976351540#1 52036180#5 -679901152#1 -45875465 152839428 -152839426"/>
    </vehicle>
    <vehicle id="114" depart="50465.41">
        <route edges="178028204#1 178028204#3 178028204#4 178028204#9 166142947#1 152839426 -187123053#6"/>
    </vehicle>
    <vehicle id="115" depart="50466.86">
        <route edges="822124413#0 822124413#1 318210358 318210355 318210354#0 -679901152#1 -45875465 152839428 -152839426 -166142947#1"/>
    </vehicle>
    <vehicle id="116" depart="50468.31">
        <route edges="-23913523#5 -23913523#4 140964927#4 -147053824#3 -147053824#2 -147053824#1"/>
    </vehicle>
    <vehicle id="117" depart="50469.76">
        <route edges="-140964907#1 1072269113 1072269112#0 178028203#1 178028203#2 178028204#1 178028204#3 178028204#4 178028204#9 166142947#1 152839426 -152839428 45875465 679901152#0 206889086#1 152839448#0 541676219 318210389#0 142575672#2 142575695#1"/>
    </vehicle>
    <vehicle id="118" depart="50471.21">
        <route edges="19585417#1 19589130#2 19589130#3 19589130#4 1072269112#0 178028203#1 178028203#2 178028204#1 178028204#3 178028204#4 178028204#9 166142947#1 152839426 -152839428 45875465 679901152#0 40191607#2 40191607#3 40191607#4 40191607#5"/>
    </vehicle>
    <vehicle id="119" depart="50472.66">
        <route edges="-178028203#2 -178028203#1 140964915#0 140964915#1 140964915#2 137534616 1066222296#0 1066222296#1 1066221786 1066221582"/>
    </vehicle>
    <vehicle id="120" depart="50474.11">
        <route edges="-178028203#2 -178028203#1 -1072269112#0 -1072269113 -147053824#5 -140964910#3 -140964910#2 -140964910#1"/>
    </vehicle>
    <vehicle id="121" depart="50475.56">
        <route edges="-178028204#4 -178028204#3 -178028204#1 -178028203#2 -178028203#1 -1072269112#0 -1072269113 -147053824#5 -147053824#4 35554226#1"/>
    </vehicle>
    <vehicle id="122" depart="50477.01">
        <route edges="-149611534#0 178028204#1 178028204#3 178028204#4 178028204#9 166142947#1 152839426 -152839428 45875465 679901152#0 206889086#1 152839448#0 541676219 318210389#0 52080655#1 318210394"/>
    </vehicle>
    <vehicle id="123" depart="50478.47">
        <route edges="153021549#0 153021549#1 1102336903#0 40191606 414563781 318210357#0 -679901152#1 -45875465 152839428 -152839426 -166142947#1 -20553068#3 -20553068#2 -20553068#1"/>
    </vehicle>
    <vehicle id="124" depart="50479.92">
        <route edges="140964924 -178028204#4 -178028204#3 -178028204#1 -178028203#2 -178028203#1 -1072269112#0 -1072269113 -147053824#5 -147053824#4 -140964927#4 23913523#4"/>
    </vehicle>
    <vehicle id="125" depart="50481.37">
        <route edges="140964905#5 187123053#3 187123053#4 187123053#5 187123053#6 -152839426 -166142947#1 -178028204#9 -178028204#4 -178028204#3 -178028204#1 149611534#0"/>
    </vehicle>
    <vehicle id="126" depart="50482.82">