<?xml version="1.0" encoding="UTF-8"?>

<!-- generated on 2023-06-20 11:13:12.102481 by routeSampler.py v1_17_0+0966-791c67e8cd8
<configuration>
    <route-files value="osm.passenger.rou.xml"/>
    <turn-ratio-files value="turn_ratio.xml"/>
    <edgedata-files value="edge_data_cars.xml"/>
    <turn-ratio-attribute value="ratio"/>
    <output-file value="samplertrips.rou.xml"/>
    <mismatch-output value="mismatch.xml"/>
</configuration>
-->

<routes xmlns:xsi="http://www.w3.org/2001/XMLSchema-instance" xsi:noNamespaceSchemaLocation="http://sumo.dlr.de/xsd/routes_file.xsd">
<!-- begin="50300.0" end="54100.0" -->
    <vehicle id="0" depart="50300.00">
        <route edges="-23913525#0 178028204#9 178028204#9.13 166142947#1 -152839428 679901152#0 72230304#1 461514282#0 461514282#1"/>
    </vehicle>
    <vehicle id="1" depart="50301.82">
        <route edges="20553068#3 -178028204#9 -178028204#9.72 -178028204#4 -178028204#3 -178028203#2 -178028203#1 -1072269112#0 -1072269113 -147053824#5 -147053824#4 -147053824#3 -147053824#2 -147053824#1 -11389403#3 -11389403#2 -11389403#1 E0"/>
    </vehicle>
    <vehicle id="2" depart="50303.64">
        <route edges="-23913525#1 -23913525#0 178028204#9 178028204#9.13 166142947#1 -152839428 679901152#0 72230304#1 461514282#0 461514282#1"/>
    </vehicle>
    <vehicle id="3" depart="50305.46">
        <route edges="-140964924 -1066222296#1 -1066222296#0 -137534616 25771472#0 -140964907#3 -140964907#2 -140964907#1 -147053824#5 -147053824#4 -147053824#3 -147053824#2 -147053824#1 11391856#2 11391856#3"/>
    </vehicle>
    <vehicle id="4" depart="50307.28">
        <route edges="20553068#1 20553068#2 20553068#3 -178028204#9 -178028204#9.72 -178028204#4 -178028204#3 -178028203#2 -178028203#1 -1072269112#0 -1072269113 -147053824#5 -147053824#4 -147053824#3 -147053824#2 -147053824#1 -11389403#3 -11389403#2 -11389403#1 E0"/>
    </vehicle>
    <vehicle id="5" depart="50309.10">
        <route edges="153021549#0 153021549#1 -149611526#1 -149611526#0 -166142951#1 -166142951#0 -1066221582 -1066221787 -1066222296#1 -1066222296#0 -137534616 25771472#0 -140964907#3 -140964907#2 -140964907#1 -147053824#5 -147053824#4 -147053824#3"/>
    </vehicle>
    <vehicle id="6" depart="50310.92">
        <route edges="153021549#0 153021549#1 1102336903#0 40191606 414563781 318210357#0 -679901152#1 -45875465 -152839426 -178028204#9"/>
    </vehicle>
    <vehicle id="7" depart="50312.75">
        <route edges="-152839426 -178028204#9 -178028204#9.72 -178028204#4 -178028204#3 -178028203#2 -178028203#1 -1072269112#0 -1072269113 -147053824#5 -147053824#4 -140964927#4 -23913523#3"/>
    </vehicle>
    <vehicle id="8" depart="50314.57">
        <route edges="153021549#0 153021549#1 -149611526#1 -149611526#0 -166142951#1 -166142951#0 -1066221582 -1066221787 -1066222296#1 23788323 -178028204#3 149611534#0 149611534#1"/>
    </vehicle>
    <vehicle id="9" depart="50316.39">
        <route edges="-1066221582 -1066221787 -1066222296#1 -1066222296#0 -137534616 25771472#0 -140964907#3 -140964907#2 -140964907#1 -147053824#5 -147053824#4 -147053824#3 -147053824#2 -147053824#1 -11389403#3 -11389403#2 -11389403#1 E0"/>
    </vehicle>
    <vehicle id="10" depart="50318.21">
        <route edges="-E0 11389403#1 11389403#2 11389403#3 147053824#1 147053824#2"/>
    </vehicle>
    <vehicle id="11" depart="50320.03">
        <route edges="25771472#0 -140964907#3 -140964907#2 -140964907#1 -147053824#5 -147053824#4 -147053824#3 -147053824#2 -147053824#1 -11389403#3 -11389403#2 -11389403#1 E0"/>
    </vehicle>
    <vehicle id="12" depart="50321.85">
        <route edges="140964924 178028204#9 178028204#9.13 166142947#1 -152839428 679901152#0 206889086#1 152839448#0 541676219"/>
    </vehicle>
    <vehicle id="13" depart="50323.67">
        <route edges="20553068#3 -178028204#9 -178028204#9.72 -178028204#4 -178028204#3 -178028203#2 -178028203#1 -1072269112#0 -1072269113 -147053824#5 -147053824#4 -147053824#3 -147053824#2 -147053824#1 -11389403#3 -11389403#2 -11389403#1 E0"/>
    </vehicle>
    <vehicle id="14" depart="50325.49">
        <route edges="318210355 318210354#0 -679901152#1 -45875465 -152839426 -178028204#9 -178028204#9.72 -178028204#4 -178028204#3 -178028203#2 -178028203#1 -1072269112#0"/>
    </vehicle>
    <vehicle id="15" depart="50327.31">
        <route edges="-140964924 -1066222296#1 -1066222296#0 -137534616 25771472#0 -140964907#3 -140964907#2 -140964907#1 -147053824#5 -147053824#4"/>
    </vehicle>
    <vehicle id="16" depart="50329.13">
        <route edges="318210358 318210355 318210354#0 -679901152#1 -45875465 -152839426 -178028204#9 -178028204#9.72 -178028204#4 -178028204#3 -178028203#2 -178028203#1 140964915#0 140964915#1 140964915#2"/>
    </vehicle>
    <vehicle id="17" depart="50330.95">
        <route edges="-166142951#1 -166142951#0 -1066221582 -1066221787 -1066222296#1 -1066222296#0 -137534616 25771472#0 -140964907#3 -140964907#2 -140964907#1 -147053824#5 -147053824#4 35554226#1"/>
    </vehicle>
    <vehicle id="18" depart="50332.77">
        <route edges="153021549#0 153021549#1 -149611526#1 -149611526#0 -166142951#1 -166142951#0 -1066221582 -1066221787 -1066222296#1 -1066222296#0 -137534616 25771472#0 -140964907#3 -140964907#2 -140964907#1 -147053824#5 -147053824#4 -147053824#3"/>
    </vehicle>
    <vehicle id="19" depart="50334.60">
        <route edges="822124413#0 822124413#1 318210358 318210355 318210354#0 -679901152#1 -45875465 -152839426 -178028204#9 -178028204#9.72 -178028204#4 -178028204#3 -178028203#2 -178028203#1 -1072269112#0 -1072269113 -147053824#5"/>
    </vehicle>
    <vehicle id="20" depart="50336.42">
        <route edges="822124413#0 822124413#1 318210358 318210355 318210354#0 -679901152#1 -45875465 -152839426 -178028204#9 -178028204#9.72 -178028204#4 -178028204#3 -178028203#2 -178028203#1 -1072269112#0 -1072269113 -147053824#5 -147053824#4 35554226#1 35554226#2 35554226#3"/>
    </vehicle>
    <vehicle id="21" depart="50338.24">
        <route edges="-19585417#1 140964927#2 140964927#3 140964927#4 -147053824#3 -147053824#2 -147053824#1 -11389403#3 -11389403#2 -11389403#1 E0"/>
    </vehicle>
    <vehicle id="22" depart="50340.06">
        <route edges="-178028204#9 -178028204#9.72 -178028204#4 -178028204#3 -178028203#2 -178028203#1 -1072269112#0 -1072269113 -147053824#5 -147053824#4 35554226#1"/>
    </vehicle>
    <vehicle id="23" depart="50341.88">
        <route edges="-E0 11389403#1 11389403#2 11389403#3 147053824#1 147053824#2"/>
    </vehicle>
    <vehicle id="24" depart="50343.70">
        <route edges="-23925122#1 -23925119#1 23925124#1 23925124#2 -166142951#1 -166142951#0 -1066221582 -1066221787 -1066222296#1 -1066222296#0 -137534616 25771472#0 -140964907#3 -140964907#2 -140964907#1 -147053824#5 -147053824#4 -140964927#4 23913523#4 23913523#5"/>
    </vehicle>
    <vehicle id="25" depart="50345.52">
        <route edges="-1066221582 -1066221787 -1066222296#1 -1066222296#0 -137534616 25771472#0 -140964907#3 -140964907#2 -140964907#1 -147053824#5 -147053824#4 -147053824#3 -147053824#2 -147053824#1 11391856#2 11391856#3 19585417#0"/>
    </vehicle>
    <vehicle id="26" depart="50347.34">
        <route edges="822124413#0 822124413#1 318210358 318210355 318210354#0 -679901152#1 -45875465 24152326#0 24152326#1 23925124#0 23925124#1 23925124#2 -166142951#1 -166142951#0 -1066221582 -1066221787 -1066222296#1"/>
    </vehicle>
    <vehicle id="27" depart="50349.16">
        <route edges="-23913525#1 -23913525#0 178028204#9 178028204#9.13 166142947#1 -152839428 679901152#0 72230304#1 461514282#0 461514282#1"/>
    </vehicle>
    <vehicle id="28" depart="50350.98">
        <route edges="822124413#0 822124413#1 318210358 318210355 318210354#0 -679901152#1 -45875465 -152839426 -178028204#9 -178028204#9.72 -178028204#4 -23788323"/>
    </vehicle>
    <vehicle id="29" depart="50352.80">
        <route edges="-23913525#0 -178028204#4 -178028204#3 -178028203#2 -178028203#1 -1072269112#0 -1072269113 -147053824#5"/>
    </vehicle>
    <vehicle id="30" depart="50354.62">
        <route edges="822124413#0 822124413#1 318210358 318210355 318210354#0 -679901152#1 -45875465 -152839426 -178028204#9 -178028204#9.72 -178028204#4 -178028204#3 -178028203#2 -178028203#1 -1072269112#0 -19589130#4 -19589130#3 -23913523#5"/>
    </vehicle>
    <vehicle id="31" depart="50356.44">
        <route edges="140964905#8 -23913525#1 -23913525#0 178028204#9 178028204#9.13 166142947#1 -152839428 679901152#0 72230304#1 461514282#0 461514282#1"/>
    </vehicle>
    <vehicle id="32" depart="50358.27">
        <route edges="-178028204#9 -178028204#9.72 -140964924 1066221786 1066221582 166142951#0 166142951#1 149611526#0 149611526#1 1102336903#0 40191606 414563781 318210357#0 72230304#1 461514282#0 461514282#1"/>
    </vehicle>
    <vehicle id="33" depart="50360.09">
        <route edges="-23913525#1 -23913525#0 178028204#9 178028204#9.13 166142947#1 -152839428 679901152#0 206889086#1 152839448#0 541676219"/>
    </vehicle>
    <vehicle id="34" depart="50361.91">
        <route edges="166142947#1 24152326#0 24152326#1 23925124#0 23925124#1 23925124#2 -166142951#1 -166142951#0 -1066221582 -1066221787 -1066222296#1 -1066222296#0 -137534616 25771472#0 25771472#1 25771472#2"/>
    </vehicle>
    <vehicle id="35" depart="50363.73">
        <route edges="-166142951#1 -166142951#0 -1066221582 -1066221787 -1066222296#1 -1066222296#0 -137534616 25771472#0 -140964907#3 -140964907#2 -140964907#1 -147053824#5 -147053824#4 35554226#1"/>
    </vehicle>
    <vehicle id="36" depart="50365.55">
        <route edges="153021549#0 153021549#1 -149611526#1 -149611526#0 -166142951#1 -166142951#0 -1066221582 -1066221787 -1066222296#1 -1066222296#0 -137534616 25771472#0 -140964907#3 -140964907#2 -140964907#1 -147053824#5 -147053824#4"/>
    </vehicle>
    <vehicle id="37" depart="50367.37">
        <route edges="-23925119#1 23925124#1 23925124#2 -166142951#1 -166142951#0 -1066221582 -1066221787 -1066222296#1 -1066222296#0 -137534616 25771472#0 -140964907#3 -140964907#2 -140964907#1 -147053824#5 -147053824#4"/>
    </vehicle>
    <vehicle id="38" depart="50369.19">
        <route edges="-35554226#3 -35554226#2 -35554226#1 -147053824#3 -147053824#2 -147053824#1 -11389403#3 -11389403#2 -11389403#1 E0"/>
    </vehicle>
    <vehicle id="39" depart="50371.01">
        <route edges="-23913525#1 -23913525#0 178028204#9 178028204#9.13 166142947#1 -152839428 679901152#0 72230304#1 461514282#0 461514282#1"/>
    </vehicle>
    <vehicle id="40" depart="50372.83">
        <route edges="153021549#0 153021549#1 1102336903#0 40191606 414563781 318210357#0 -679901152#1 -45875465 -152839426 -20553068#3"/>
    </vehicle>
    <vehicle id="41" depart="50374.65">
        <route edges="822124413#0 822124413#1 318210358 318210355 318210354#0 -679901152#1 -45875465 24152326#0 24152326#1"/>
    </vehicle>
    <vehicle id="42" depart="50376.47">
        <route edges="-140964907#2 -140964907#1 -147053824#5 -147053824#4 -147053824#3 -147053824#2 -147053824#1 -11389403#3 -11389403#2 -11389403#1 E0"/>
    </vehicle>
    <vehicle id="43" depart="50378.29">
        <route edges="153021549#0 153021549#1 1102336903#0 40191606 414563781 318210357#0 -679901152#1 -45875465 -152839426"/>
    </vehicle>
    <vehicle id="44" depart="50380.11">
        <route edges="153021549#0 153021549#1 -149611526#1 -149611526#0 -166142951#1 -166142951#0 -1066221582 -1066221787 -1066222296#1 -1066222296#0 -137534616 25771472#0 -140964907#3 -140964907#2 -140964907#1 -147053824#5 -147053824#4 -147053824#3 -147053824#2 -147053824#1"/>
    </vehicle>
    <vehicle id="45" depart="50381.94">
        <route edges="23925124#2 -166142951#1 -166142951#0 -1066221582 -1066221787 -1066222296#1 -1066222296#0 -137534616 25771472#0 -140964907#3 -140964907#2 -140964907#1 -147053824#5 -147053824#4 -147053824#3 -147053824#2 -147053824#1 -11389403#3 -11389403#2 -11389403#1 E0"/>
    </vehicle>
    <vehicle id="46" depart="50383.76">
        <route edges="153021549#0 153021549#1 -149611526#1 -149611526#0 -166142951#1 -166142951#0 -1066221582 -1066221787 -1066222296#1 -1066222296#0 -137534616 25771472#0 -140964907#3 -140964907#2 -140964907#1 -147053824#5 -147053824#4 -147053824#3 -147053824#2 -147053824#1"/>
    </vehicle>
    <vehicle id="47" depart="50385.58">
        <route edges="-E0 11389403#1 11389403#2 11389403#3 147053824#1 147053824#2"/>
    </vehicle>
    <vehicle id="48" depart="50387.40">
        <route edges="-23913525#1 -23913525#0 178028204#9 178028204#9.13 166142947#1 -152839428 679901152#0 72230304#1 461514282#0 461514282#1"/>
    </vehicle>
    <vehicle id="49" depart="50389.22">
        <route edges="153021549#0 153021549#1 1102336903#0 40191606 414563781 318210357#0 -679901152#1 -45875465 -152839426"/>
    </vehicle>
    <vehicle id="50" depart="50391.04">
        <route edges="178028204#4 178028204#9 178028204#9.13 166142947#1 -152839428 679901152#0 72230304#1 461514282#0 461514282#1"/>
    </vehicle>
    <vehicle id="51" depart="50392.86">
        <route edges="153021549#0 153021549#1 1102336903#0 40191606 414563781 318210357#0 -679901152#1 -45875465 -152839426 -20553068#3"/>
    </vehicle>
    <vehicle id="52" depart="50394.68">
        <route edges="153021549#0 153021549#1 1102336903#0 40191606 414563781 318210357#0 -679901152#1 -45875465 -152839426"/>
    </vehicle>
    <vehicle id="53" depart="50396.50">
        <route edges="153021549#0 153021549#1 1102336903#0 40191606 414563781 318210357#0 -679901152#1 -45875465 -152839426 -178028204#9 -178028204#9.72 -178028204#4 -23788323"/>
    </vehicle>
    <vehicle id="54" depart="50398.32">
        <route edges="-1072269112#0 -1072269113 -147053824#5 -147053824#4 -147053824#3 -147053824#2 -147053824#1 -11389403#3 -11389403#2 -11389403#1 E0"/>
    </vehicle>
    <vehicle id="55" depart="50400.14">
        <route edges="-E0 11389403#1 11389403#2 11389403#3 147053824#1 147053824#2"/>
    </vehicle>
    <vehicle id="56" depart="50401.96">
        <route edges="-147053824#5 -140964910#3 -140964910#2 -140964910#1 -25771472#1 -25771472#0 137534616 1066222296#0 1066222296#1 1066221786 1066221582 166142951#0 166142951#1 149611526#0 149611526#1 1102336903#0 40191606 414563781 318210357#0 72230304#1 461514282#0 461514282#1"/>
    </vehicle>
    <vehicle id="57" depart="50403.79">
        <route edges="153021549#0 153021549#1 -149611526#1 -149611526#0 -166142951#1 -166142951#0 -1066221582 -1066221787 -1066222296#1 -1066222296#0 -137534616 25771472#0 -140964907#3 -140964907#2 -140964907#1 -147053824#5 -147053824#4 -140964927#4"/>
    </vehicle>
    <vehicle id="58" depart="50405.61">
        <route edges="-23913525#0 178028204#9 178028204#9.13 166142947#1 -152839428 679901152#0 72230304#1 461514282#0 461514282#1"/>
    </vehicle>
    <vehicle id="59" depart="50407.43">
        <route edges="-23913523#5 -23913523#4 140964927#4 -147053824#3 -147053824#2 -147053824#1 -11389403#3 -11389403#2 -11389403#1 E0"/>
    </vehicle>
    <vehicle id="60" depart="50409.25">
        <route edges="822124413#0 822124413#1 318210358 318210355 318210354#0 -679901152#1 -45875465 -152839426 -178028204#9 -178028204#9.72 -178028204#4"/>
    </vehicle>
    <vehicle id="61" depart="50411.07">
        <route edges="-178028204#4 -23788323 1066222296#1 1066221786 1066221582 166142951#0 166142951#1 149611526#0 149611526#1 1102336903#0 40191606 414563781 318210357#0 72230304#1 461514282#0 461514282#1"/>
    </vehicle>
    <vehicle id="62" depart="50412.89">
        <route edges="-152839426 -178028204#9 -178028204#9.72 -178028204#4 -178028204#3 -178028203#2 -178028203#1 -1072269112#0 -1072269113 -147053824#5 -147053824#4 -147053824#3 -146511475#0 -1093549550#1 -1093549550#0"/>
    </vehicle>
    <vehicle id="63" depart="50414.71">
        <route edges="822124413#0 822124413#1 318210358 318210355 318210354#0 -679901152#1 -45875465 -152839426 -178028204#9 -178028204#9.72 -178028204#4 -178028204#3 -178028203#2 -178028203#1"/>
    </vehicle>
    <vehicle id="64" depart="50416.53">
        <route edges="-23913523#5 -23913523#4 140964927#4 -147053824#3 -147053824#2 -147053824#1 -11389403#3 -11389403#2 -11389403#1 E0"/>
    </vehicle>
    <vehicle id="65" depart="50418.35">
        <route edges="153021549#0 153021549#1 -149611526#1 -149611526#0 -166142951#1 -166142951#0 -1066221582 -1066221787 -1066222296#1 -1066222296#0 -137534616 25771472#0 -140964907#3 -140964907#2 -140964907#1 -147053824#5 -147053824#4 -147053824#3 -147053824#2 -147053824#1"/>
    </vehicle>
    <vehicle id="66" depart="50420.17">
        <route edges="153021549#0 153021549#1 -149611526#1 -149611526#0 -166142951#1 -166142951#0 -1066221582 -1066221787 -1066222296#1 -1066222296#0 -137534616 25771472#0 -140964907#3 -140964907#2 -140964907#1 -147053824#5 -147053824#4"/>
    </vehicle>
    <vehicle id="67" depart="50421.99">
        <route edges="178028204#1 -23788323 -1066222296#0 -137534616 25771472#0 -140964907#3 -140964907#2 -140964907#1 -147053824#5 -147053824#4 -147053824#3 -147053824#2 -147053824#1 -11389403#3 -11389403#2 -11389403#1 E0"/>
    </vehicle>
    <vehicle id="68" depart="50423.81">
        <route edges="153021549#0 153021549#1 -149611526#1 -149611526#0 -166142951#1 -166142951#0 -1066221582 -1066221787 -1066222296#1 -1066222296#0 -137534616 25771472#0 -140964907#3 -140964907#2 -140964907#1 -147053824#5 -147053824#4 -147053824#3 -147053824#2"/>
    </vehicle>
    <vehicle id="69" depart="50425.63">
        <route edges="153021549#0 153021549#1 1102336903#0 40191606 414563781 318210357#0 -679901152#1 -45875465 -152839426 -178028204#9 -178028204#9.72 -178028204#4 -23788323"/>
    </vehicle>
    <vehicle id="70" depart="50427.46">
        <route edges="-140964924 -1066222296#1 -1066222296#0 -137534616 25771472#0 -140964907#3 -140964907#2 -140964907#1 -147053824#5 -147053824#4 -147053824#3 -147053824#2 -147053824#1 -11389403#3"/>
    </vehicle>
    <vehicle id="71" depart="50429.28">
        <route edges="-140964924 -1066222296#1 -1066222296#0 -137534616 25771472#0 -140964907#3 -140964907#2 -140964907#1 -147053824#5 -147053824#4"/>
    </vehicle>
    <vehicle id="72" depart="50431.10">
        <route edges="20553068#2 20553068#3 166142947#1 -152839428 679901152#0 72230304#1 461514282#0 461514282#1"/>
    </vehicle>
    <vehicle id="73" depart="50432.92">
        <route edges="-23925122#1 23925119#3 40191606 414563781 318210357#0 -679901152#1 -45875465 -152839426 -178028204#9 -178028204#9.72 -178028204#4 -178028204#3 -178028203#2 -178028203#1 -1072269112#0 -19589130#4 -19589130#3 -19589130#2"/>
    </vehicle>
    <vehicle id="74" depart="50434.74">
        <route edges="153021549#1 1102336903#0 40191606 414563781 318210357#0 -679901152#1 -45875465 -152839426 -178028204#9 -178028204#9.72 -178028204#4"/>
    </vehicle>
    <vehicle id="75" depart="50436.56">
        <route edges="140964924 178028204#9 178028204#9.13 166142947#1 -152839428 679901152#0 40191607#2 40191607#3 40191607#4 40191607#5"/>
    </vehicle>
    <vehicle id="76" depart="50438.38">
        <route edges="-147053824#3 -146511475#0 -1093549550#1 -1093549550#0 20553444 -35554229#1 -35554229#0 -25771472#2 -25771472#1 -25771472#0 137534616 1066222296#0 1066222296#1 1066221786 1066221582 166142951#0 166142951#1 149611526#0 149611526#1 1102336903#0 40191606 414563781 318210357#0 72230304#1 461514282#0"/>
    </vehicle>
    <vehicle id="77" depart="50440.20">
        <route edges="822124413#0 822124413#1 318210358 318210355 318210354#0 -679901152#1 -45875465 -152839426 -178028204#9 -178028204#9.72 -178028204#4 -178028204#3 -178028203#2 -178028203#1 -1072269112#0 -1072269113 -147053824#5 -140964910#3 -140964910#2"/>
    </vehicle>
    <vehicle id="78" depart="50442.02">
        <route edges="140964924 178028204#9 178028204#9.13 166142947#1 -152839428 679901152#0 206889086#1 152839448#0 541676219"/>
    </vehicle>
    <vehicle id="79" depart="50443.84">
        <route edges="822124413#0 822124413#1 318210358 318210355 318210354#0 -679901152#1 -45875465 -152839426 -178028204#9 -178028204#9.72 -178028204#4 -178028204#3 -178028203#2 -178028203#1 -1072269112#0 -1072269113 -147053824#5 -147053824#4 -140964927#4 -23913523#3 -23913523#2 -23913523#0"/>
    </vehicle>
    <vehicle id="80" depart="50445.66">
        <route edges="140964924 178028204#9 178028204#9.13 166142947#1 -152839428 679901152#0 206889086#1 152839448#0 541676219"/>
    </vehicle>
    <vehicle id="81" depart="50447.48">
        <route edges="-1072269112#0 -1072269113 -147053824#5 -147053824#4 -147053824#3 -147053824#2 -147053824#1 -11389403#3 -11389403#2 -11389403#1 E0"/>
    </vehicle>
    <vehicle id="82" depart="50449.31">
        <route edges="-147053824#5 -140964910#3 -140964910#2 -140964910#1 -25771472#1 -25771472#0 137534616 1066222296#0 1066222296#1 1066221786 1066221582 20553068#0 20553068#1 20553068#2 20553068#3 -178028204#9"/>
    </vehicle>
    <vehicle id="83" depart="50451.13">
        <route edges="-140964924 -1066222296#1 -1066222296#0 -137534616 25771472#0 -140964907#3 -140964907#2 -140964907#1 -147053824#5 -147053824#4"/>
    </vehicle>
    <vehicle id="84" depart="50452.95">
        <route edges="25771472#0 -140964907#3 -140964907#2 -140964907#1 -147053824#5 -147053824#4 -147053824#3 -147053824#2 -147053824#1 -11389403#3 -11389403#2 -11389403#1 E0"/>
    </vehicle>
    <vehicle id="85" depart="50454.77">
        <route edges="153021549#0 153021549#1 1102336903#0 40191606 414563781 318210357#0 -679901152#1 -45875465 -152839426 -20553068#3"/>
    </vehicle>
    <vehicle id="86" depart="50456.59">
        <route edges="140964924 178028204#9 178028204#9.13 166142947#1 -152839428 679901152#0 40191607#2 40191607#3 40191607#4 40191607#5 40191607#6 20552644#2"/>
    </vehicle>
    <vehicle id="87" depart="50458.41">
        <route edges="822124413#0 822124413#1 318210358 318210355 318210354#0 -679901152#1 -45875465 -152839426 -178028204#9 -178028204#9.72 -178028204#4 -23788323"/>
    </vehicle>
    <vehicle id="88" depart="50460.23">
        <route edges="-147053824#5 -140964910#3 -140964910#2 -140964910#1 -25771472#1 -25771472#0 137534616 1066222296#0 1066222296#1 1066221786 1066221582 20553068#0 20553068#1 20553068#2 20553068#3 -178028204#9"/>
    </vehicle>
    <vehicle id="89" depart="50462.05">
        <route edges="153021549#0 153021549#1 1102336903#0 40191606 414563781 318210357#0 -679901152#1 -45875465 -152839426 -178028204#9 -178028204#9.72 -178028204#4 -23788323"/>
    </vehicle>
    <vehicle id="90" depart="50463.87">
        <route edges="-23925122#1 23925119#3 40191606 414563781 318210357#0 -679901152#1 -45875465 -152839426 -178028204#9 -178028204#9.72 -178028204#4 -178028204#3 -178028203#2"/>
    </vehicle>
    <vehicle id="91" depart="50465.69">
        <route edges="-E0 11389403#1 11389403#2 11389403#3 11391856#2 23913523#0"/>
    </vehicle>
    <vehicle id="92" depart="50467.51">
        <route edges="822124413#0 822124413#1 318210358 318210355 318210354#0 -679901152#1 -45875465 -152839426 -178028204#9 -178028204#9.72 -178028204#4 -178028204#3 -178028203#2 -178028203#1 -1072269112#0 -1072269113 -147053824#5 -147053824#4 35554226#1 35554226#2 35554226#3"/>
    </vehicle>
    <vehicle id="93" depart="50469.33">
        <route edges="153021549#0 153021549#1 -149611526#1 -149611526#0 -166142951#1 -166142951#0 -1066221582 -1066221787 -1066222296#1 -1066222296#0 -137534616 25771472#0 -140964907#3 -140964907#2 -140964907#1 -147053824#5 -147053824#4"/>
    </vehicle>
    <vehicle id="94" depart="50471.15">
        <route edges="-E0 11389403#1 11389403#2 11389403#3 147053824#1 147053824#2 147053824#3 35554226#1 35554226#2 35554226#3"/>
    </vehicle>
    <vehicle id="95" depart="50472.98">
        <route edges="-140964924 -1066222296#1 -1066222296#0 -137534616 25771472#0 -140964907#3 -140964907#2 -140964907#1 -147053824#5 -147053824#4 -147053824#3 -147053824#2 -147053824#1 11391856#2 11391856#3"/>
    </vehicle>
    <vehicle id="96" depart="50474.80">
        <route edges="153021549#0 153021549#1 1102336903#0 40191606 414563781 318210357#0 -679901152#1 -45875465 -152839426 -178028204#9 -178028204#9.72 -140964924"/>
    </vehicle>
    <vehicle id="97" depart="50476.62">
        <route edges="20553068#1 20553068#2 20553068#3 166142947#1 -152839428 679901152#0 72230304#1 461514282#0 461514282#1"/>
    </vehicle>
    <vehicle id="98" depart="50478.44">
        <route edges="153021549#0 153021549#1 -149611526#1 -149611526#0 -166142951#1 -166142951#0 -1066221582 -1066221787 140964924 178028204#9"/>
    </vehicle>
    <vehicle id="99" depart="50480.26">
        <route edges="140964905#8 -23913525#1 -23913525#0 178028204#9 178028204#9.13 166142947#1 -152839428 679901152#0 72230304#1 461514282#0 461514282#1"/>
    </vehicle>
    <vehicle id="100" depart="50482.08">
        <route edges="-149611534#1 -149611534#0 -178028203#2 -178028203#1 -1072269112#0 -1072269113 -147053824#5 -147053824#4 -147053824#3 -146511475#0 -1093549550#1 -1093549550#0 -1093549448#2 -148803147#3"/>
    </vehicle>
    <vehicle id="101" depart="50483.90">
        <route edges="-1072269112#0 -1072269113 -147053824#5 -147053824#4 -147053824#3 -147053824#2 -147053824#1 -11389403#3 -11389403#2 -11389403#1 E0"/>
    </vehicle>
    <vehicle id="102" depart="50485.72">
        <route edges="-23925122#1 23925119#3 40191606 414563781 318210357#0 -679901152#1 -45875465 -152839426 -178028204#9 -178028204#9.72 -178028204#4 -178028204#3 -178028203#2 -178028203#1 -1072269112#0 -19589130#4 -19589130#3 -23913523#5"/>
    </vehicle>
    <vehicle id="103" depart="50487.54">
        <route edges="153021549#0 153021549#1 -149611526#1 -149611526#0 -166142951#1 -166142951#0 -1066221582 -1066221787 -1066222296#1 23788323 -178028204#3 149611534#0 149611534#1"/>
    </vehicle>
    <vehicle id="104" depart="50489.36">
        <route edges="-E0 11389403#1 11389403#2 11389403#3 11391856#2 23913523#0"/>
    </vehicle>
    <vehicle id="105" depart="50491.18">
        <route edges="153021549#0 153021549#1 -149611526#1 -149611526#0 -166142951#1 -166142951#0 -1066221582 -1066221787 -1066222296#1 -1066222296#0 -137534616 25771472#0 -140964907#3 -140964907#2 -140964907#1 -147053824#5 -147053824#4 -147053824#3"/>
    </vehicle>
    <vehicle id="106" depart="50493.00">
        <route edges="822124413#0 822124413#1 318210358 318210355 318210354#0 -679901152#1 -45875465 -152839426"/>
    </vehicle>
    <vehicle id="107" depart="50494.83">
        <route edges="-178028204#3 -178028203#2 -178028203#1 -1072269112#0 -1072269113 -147053824#5 -147053824#4 -140964927#4"/>
    </vehicle>
    <vehicle id="108" depart="50496.65">
        <route edges="-140964907#3 -140964907#2 -140964907#1 1072269113 1072269112#0 178028203#1 178028203#2 178028204#1 178028204#4 178028204#9 178028204#9.13 166142947#1 -152839428 679901152#0 206889086#1 152839448#0 541676219"/>
    </vehicle>
    <vehicle id="109" depart="50498.47">
        <route edges="153021549#0 153021549#1 -149611526#1 -149611526#0 -166142951#1 -166142951#0 -1066221582 -1066221787 -1066222296#1 -1066222296#0 -137534616 25771472#0 -140964907#3 -140964907#2 -140964907#1 -147053824#5 -147053824#4 -147053824#3 -146511475#0"/>
    </vehicle>
    <vehicle id="110" depart="50500.29">
        <route edges="40191606 414563781 318210357#0 -679901152#1 -45875465 -152839426 -178028204#9 -178028204#9.72 -178028204#4 -178028204#3"/>
    </vehicle>
    <vehicle id="111" depart="50502.11">
        <route edges="153021549#0 153021549#1 -149611526#1 -149611526#0 -166142951#1 -166142951#0 -1066221582 -1066221787 -1066222296#1 -1066222296#0 -137534616 25771472#0 -140964907#3 -140964907#2 -140964907#1 -147053824#5 -147053824#4 -147053824#3"/>
    </vehicle>
    <vehicle id="112" depart="50503.93">
        <route edges="-23913523#5 -23913523#4 140964927#4 -147053824#3 -146511475#0 -1093549550#1 -1093549550#0"/>
    </vehicle>
    <vehicle id="113" depart="50505.75">
        <route edges="822124413#0 822124413#1 318210358 318210355 318210354#0 -679901152#1 -45875465 -152839426 -178028204#9 -178028204#9.72 -178028204#4 -178028204#3 149611534#0"/>
    </vehicle>
    <vehicle id="114" depart="50507.57">
        <route edges="20553068#2 20553068#3 166142947#1 -152839428 679901152#0 72230304#1 461514282#0 461514282#1"/>
    </vehicle>
    <vehicle id="115" depart="50509.39">
        <route edges="-23913525#1 -23913525#0 178028204#9 178028204#9.13 166142947#1 -152839428 679901152#0 206889086#1 152839448#0 541676219"/>
    </vehicle>
    <vehicle id="116" depart="50511.21">
        <route edges="153021549#0 153021549#1 -149611526#1 -149611526#0 -166142951#1 -166142951#0 -1066221582 -1066221787 -1066222296#1 -1066222296#0 -137534616 25771472#0 -140964907#3 -140964907#2 -140964907#1 -147053824#5 -147053824#4"/>
    </vehicle>
    <vehicle id="117" depart="50513.03">
        <route edges="822124413#0 822124413#1 318210358 318210355 318210354#0 -679901152#1 -45875465 -152839426"/>
    </vehicle>
    <vehicle id="118" depart="50514.85">
        <route edges="153021549#0 153021549#1 -149611526#1 -149611526#0 -166142951#1 -166142951#0 -1066221582 -1066221787 -1066222296#1 -1066222296#0 -137534616 25771472#0 -140964907#3 -140964907#2 -140964907#1 -147053824#5 -147053824#4 -147053824#3"/>
    </vehicle>
    <vehicle id="119" depart="50516.67">
        <route edges="822124413#0 822124413#1 318210358 318210355 318210354#0 -679901152#1 -45875465 24152326#0 24152326#1 23925124#0 23925124#1 23925124#2 -166142951#1 -166142951#0 -1066221582 -1066221787 -1066222296#1 -1066222296#0 -137534616 25771472#0 25771472#1 140964910#1"/>
    </vehicle>
    <vehicle id="120" depart="50518.50">
        <route edges="-147053824#5 -140964910#3 -140964910#2 -140964910#1 -25771472#1 -25771472#0 137534616 1066222296#0 1066222296#1 1066221786 1066221582 166142951#0 166142951#1 149611526#0 149611526#1 1102336903#0 40191606 414563781 318210357#0 206889086#1 152839448#0 541676219"/>
    </vehicle>
    <vehicle id="121" depart="50520.32">