<?xml version="1.0" encoding="UTF-8"?>

<!-- generated on 2023-06-16 13:53:06.973426 by routeSampler.py v1_17_0+0966-791c67e8cd8
<configuration>
    <route-files value="osm.bicycle.rou.xml"/>
    <turn-ratio-files value="turn_ratio.xml"/>
    <edgedata-files value="edge_data_bike.xml"/>
    <turn-ratio-attribute value="ratio"/>
    <output-file value="samplertrips_bike.rou.xml"/>
    <attributes value="type=&quot;bike_bicycle&quot;"/>
    <mismatch-output value="mismatch_bike.xml"/>
</configuration>
-->

<routes xmlns:xsi="http://www.w3.org/2001/XMLSchema-instance" xsi:noNamespaceSchemaLocation="http://sumo.dlr.de/xsd/routes_file.xsd">
<!-- begin="50300.0" end="54100.0" -->
	<vType id="bike_bicycle" vClass="bicycle"/>
    <vehicle id="0" depart="50300.00" type="bike_bicycle">
        <route edges="-187114311 23925124#2 -166142951#1 -166142951#0 -1066221582 -1066221787 -1066222296#1 -1066222296#0 -137534616 25771472#0 -140964907#3 -140964907#2 -140964907#1 1072269113 1072269112#0"/>
    </vehicle>
    <vehicle id="1" depart="50307.17" type="bike_bicycle">
        <route edges="-678099923 -310096356#1 -310096356#0 19589130#4 -1072269113 -147053824#5 -147053824#4 -147053824#3 -147053824#2 -147053824#1 -11389403#3 -11389403#2 -11389403#1 E0"/>
    </vehicle>
    <vehicle id="2" depart="50314.34" type="bike_bicycle">
        <route edges="822124413#0 822124413#1 318210358 318210355 318210354#0 -679901152#1 -45875465 24152326#0 24152326#1 23925124#0 23925124#1 23925124#2 -166142951#1 -166142951#0 -1066221582 -1066221787 -1066222296#1 -1066222296#0 -137534616 25771472#0 25771472#1 25771472#2 35554229#0 35554229#1 35215636"/>
    </vehicle>
    <vehicle id="3" depart="50321.51" type="bike_bicycle">
        <route edges="809228515 140964915#2 25771472#0 25771472#1 25771472#2 -35554226#3 -35554226#2 -35554226#1 -147053824#3 -147053824#2 -147053824#1 -11389403#3 -11389403#2 -11389403#1 E0"/>
    </vehicle>
    <vehicle id="4" depart="50328.68" type="bike_bicycle">
        <route edges="822124413#0 822124413#1 318210358 318210355 318210354#0 -679901152#1 -45875465 24152326#0 24152326#1 23925124#0 23925124#1 23925124#2 149611511#0 149611511#1 149611511#2 23919022#0 -23919022#0"/>
    </vehicle>
    <vehicle id="5" depart="50335.85" type="bike_bicycle">
        <route edges="-23925122#1 23925122#1 23925123#1 -24152326#0 -152839426 -178028204#9 23913525#0 -317233620 -61660891"/>
    </vehicle>
    <vehicle id="6" depart="50343.02" type="bike_bicycle">
        <route edges="886496552#0 886496552#1 -23919022#0 -149611511#2 -149611511#1 -149611511#0 -23925124#2 -23925124#1 -23925124#0 -24152326#1 -24152326#0 -152839426 -178028204#9"/>
    </vehicle>
    <vehicle id="7" depart="50350.19" type="bike_bicycle">
        <route edges="-678099923 -310096356#1 -310096356#0 19589130#4 -1072269113 -147053824#5 -147053824#4 -147053824#3 -147053824#2 -148803125#1 -148803125#0 148803132#1 -45336120#0 -148803138#2 -148803138#1"/>
    </vehicle>
    <vehicle id="8" depart="50357.36" type="bike_bicycle">
        <route edges="822124413#0 822124413#1 318210358 318210355 318210354#0 -679901152#1 -45875465 -152839426 -178028204#9 23913525#0 -317233620 -61660891"/>
    </vehicle>
    <vehicle id="9" depart="50364.53" type="bike_bicycle">
        <route edges="147053824#1 147053824#2 147053824#3 147053824#4 147053824#5 1072269113 1072269112#0 140964915#0 140964915#1 -809228515"/>
    </vehicle>
    <vehicle id="10" depart="50371.70" type="bike_bicycle">
        <route edges="-579671869#1 -579671869#0 -166142951#0 -1066221582 -1066221787 -1066222296#1 -1066222296#0 -137534616 25771472#0 25771472#1 25771472#2 -35554226#3 -35554226#2 -35554226#1 -147053824#3 -147053824#2 -147053824#1 -11389403#3 55376510#1 -26993480"/>
    </vehicle>
    <vehicle id="11" depart="50378.87" type="bike_bicycle">
        <route edges="822124413#0 822124413#1 318210358 318210355 318210354#0 -679901152#1 -45875465 -152839426 -178028204#9 23913525#0 -317233620 -61660891"/>
    </vehicle>
    <vehicle id="12" depart="50386.04" type="bike_bicycle">
        <route edges="886496552#0 886496552#1 -23919022#0 -149611511#2 -149611511#1 -149611511#0 -23925124#2 -23925124#1 -23925124#0 -24152326#1 -24152326#0 -152839426 -178028204#9"/>
    </vehicle>
    <vehicle id="13" depart="50393.21" type="bike_bicycle">
        <route edges="-187114311 23925124#2 -166142951#1 -166142951#0 -1066221582 -1066221787 -1066222296#1 -1066222296#0 -137534616 25771472#0 -140964907#3 -140964907#2 -140964907#1 1072269113 1072269112#0"/>
    </vehicle>
    <vehicle id="14" depart="50400.38" type="bike_bicycle">
        <route edges="-350626781 148803125#1 -147053824#1 11391856#2 23913523#0 754029705"/>
    </vehicle>
    <vehicle id="15" depart="50407.55" type="bike_bicycle">
        <route edges="25771472#2 -35554226#3 -35554226#2 -35554226#1 -147053824#3 -147053824#2 -147053824#1 -42857424#2 -42857424#1 -42857424#0"/>
    </vehicle>
    <vehicle id="16" depart="50414.72" type="bike_bicycle">
        <route edges="822124413#0 822124413#1 318210358 318210355 318210354#0 -679901152#1 -45875465 24152326#0 24152326#1 23925124#0 23925124#1 23925124#2 -166142951#1 579671869#0 579671869#1"/>
    </vehicle>
    <vehicle id="17" depart="50421.89" type="bike_bicycle">
        <route edges="-23925122#1 23925122#1 23925123#1 -24152326#0 -152839426 -178028204#9 23913525#0 -317233620 -61660891"/>
    </vehicle>
    <vehicle id="18" depart="50429.06" type="bike_bicycle">
        <route edges="-35554226#2 -35554226#1 -147053824#3 -147053824#2 -147053824#1 -11389403#3 -11389403#2 -206312192#1 -238053701 -238053696 -238053694"/>
    </vehicle>
    <vehicle id="19" depart="50436.23" type="bike_bicycle">
        <route edges="23913522#0 55376665 -55376510#0 147053824#1 147053824#2 147053824#3 147053824#4 147053824#5 1072269113 1072269112#0 178028203#1 178028203#2 -178028206#2 -178028206#1"/>
    </vehicle>
    <vehicle id="20" depart="50443.40" type="bike_bicycle">
        <route edges="-678099923 -310096356#1 -310096356#0 19589130#4 -1072269113 -147053824#5 -140964910#3 -140964910#2 -140964910#1 25771472#2"/>
    </vehicle>
    <vehicle id="21" depart="50450.57" type="bike_bicycle">
        <route edges="822124413#0 822124413#1 318210358 318210355 318210354#0 -679901152#1 -45875465 -152839426 -178028204#9 23913525#0 -317233620 -61660891"/>
    </vehicle>
    <vehicle id="22" depart="50457.74" type="bike_bicycle">
        <route edges="822124413#1 318210358 318210355 318210354#0 -679901152#1 -45875465 -152839426 -20553068#3 581944408"/>
    </vehicle>
    <vehicle id="23" depart="50464.91" type="bike_bicycle">
        <route edges="886496552#0 886496552#1 -23919022#0 -149611511#2 -149611511#1 -149611511#0 -23925124#2 -23925124#1 -23925124#0 -24152326#1 -24152326#0 -152839426 -178028204#9"/>
    </vehicle>
    <vehicle id="24" depart="50472.08" type="bike_bicycle">
        <route edges="-187114311 23925124#2 -166142951#1 -166142951#0 -1066221582 -1066221787 -1066222296#1 -1066222296#0 -137534616 25771472#0 -140964907#3 -140964907#2 -140964907#1 1072269113 1072269112#0"/>
    </vehicle>
    <vehicle id="25" depart="50479.25" type="bike_bicycle">
        <route edges="318210355 318210354#0 -679901152#1 -45875465 -152839426 -178028204#9 -178028204#4 -178028204#3 -178028203#2 -178028203#1 -1072269112#0 -1072269113 -147053824#5 -147053824#4 -147053824#3 -147053824#2 -147053824#1 -11389403#3 -11389403#2 -11389403#1 E0"/>
    </vehicle>
    <vehicle id="26" depart="50486.42" type="bike_bicycle">
        <route edges="754029706 23913523#2 23913523#3 140964927#4 -147053824#3 -146511475#0 -1093549550#1 -87846825#1 -87846825#0"/>
    </vehicle>
    <vehicle id="27" depart="50493.58" type="bike_bicycle">
        <route edges="963199166 61660894 -23913525#0 178028204#9 166142947#1 -152839428 679901152#0 206889086#1 152839448#0 541676219"/>
    </vehicle>
    <vehicle id="28" depart="50500.75" type="bike_bicycle">
        <route edges="822124413#0 822124413#1 318210358 318210355 318210354#0 -679901152#1 -45875465 -152839426 -178028204#9 23913525#0 -317233620 -61660891"/>
    </vehicle>
    <vehicle id="29" depart="50507.92" type="bike_bicycle">
        <route edges="822124413#0 822124413#1 318210358 318210355 318210354#0 -679901152#1 -45875465 -152839426 -178028204#9 23913525#0 -317233620 -61660891"/>
    </vehicle>
    <vehicle id="30" depart="50515.09" type="bike_bicycle">
        <route edges="603469202 -149611511#1 -149611511#0 -166142951#1 -166142951#0 -1066221582 -1066221787 -1066222296#1 -1066222296#0 -137534616 25771472#0 25771472#1 25771472#2 -35554226#3 -35554226#2 -35554226#1 -147053824#3 -147053824#2 -147053824#1 -11389403#3 55376510#1 -26993480"/>
    </vehicle>
    <vehicle id="31" depart="50522.26" type="bike_bicycle">
        <route edges="-568656006 146511475#0 -147053824#2 -147053824#1 -11389403#3 -11389403#2 -206312192#1 -238053701 -238053696 -238053694"/>
    </vehicle>
    <vehicle id="32" depart="50529.43" type="bike_bicycle">
        <route edges="-23913523#5 -23913523#4 140964927#4 -147053824#3 -147053824#2 -147053824#1 -11389403#3 -11389403#2 206312192#2 206312192#3"/>
    </vehicle>
    <vehicle id="33" depart="50536.60" type="bike_bicycle">
        <route edges="822124413#0 822124413#1 318210358 318210355 318210354#0 -679901152#1 -45875465 -152839426 -178028204#9 23913525#0 -317233620 61660894 -23913525#0 178028204#9"/>
    </vehicle>
    <vehicle id="34" depart="50543.77" type="bike_bicycle">
        <route edges="-1072269112#0 -19589130#4 310096356#0 310096356#1 310096356#2 20554168 178028206#1 178028206#2 178028204#1 178028204#4 178028204#9 166142947#1 24152326#0"/>
    </vehicle>
    <vehicle id="35" depart="50550.94" type="bike_bicycle">
        <route edges="42857424#0 42857424#1 42857424#2 147053824#1 147053824#2 -146511475#0 -1093549550#1 -87846825#1 -87846825#0"/>
    </vehicle>
    <vehicle id="36" depart="50558.11" type="bike_bicycle">
        <route edges="822124413#0 822124413#1 318210358 318210355 318210354#0 -679901152#1 -45875465 -152839426 -178028204#9 23913525#0 -317233620 61660894 -23913525#0 178028204#9"/>
    </vehicle>
    <vehicle id="37" depart="50565.28" type="bike_bicycle">
        <route edges="603469202 -149611511#1 -149611511#0 -166142951#1 -166142951#0 -1066221582 -1066221787 -1066222296#1 -1066222296#0 -137534616 25771472#0 25771472#1 25771472#2 -35554226#3 -35554226#2 -35554226#1 -147053824#3 -147053824#2 -147053824#1 -42857424#2 -42857424#1 -42857424#0"/>
    </vehicle>
    <vehicle id="38" depart="50572.45" type="bike_bicycle">
        <route edges="-187114311 23925124#2 -166142951#1 -166142951#0 -1066221582 -1066221787 -1066222296#1 -1066222296#0 -137534616 25771472#0 -140964907#3 -140964907#2 -140964907#1 1072269113 1072269112#0"/>
    </vehicle>
    <vehicle id="39" depart="50579.62" type="bike_bicycle">
        <route edges="822124413#0 822124413#1 318210358 318210355 318210354#0 -679901152#1 -45875465 -152839426 -178028204#9 -178028204#4"/>
    </vehicle>
    <vehicle id="40" depart="50586.79" type="bike_bicycle">
        <route edges="-23925122#1 23925122#1 23925123#1 -24152326#0 -152839426 -178028204#9 23913525#0 -317233620 -61660891"/>
    </vehicle>
    <vehicle id="41" depart="50593.96" type="bike_bicycle">
        <route edges="-206312192#3 -206312192#2 11389403#2 -55376510#0 147053824#1 147053824#2 -146511475#0 -1093549550#1 -87846825#1 -87846825#0"/>
    </vehicle>
    <vehicle id="42" depart="50601.13" type="bike_bicycle">
        <route edges="822124413#0 822124413#1 318210358 318210355 318210354#0 -679901152#1 -45875465 -152839426 -178028204#9 23913525#0 -317233620 61660894 -23913525#0 178028204#9"/>
    </vehicle>
    <vehicle id="43" depart="50608.30" type="bike_bicycle">
        <route edges="-187114311 23925124#2 -166142951#1 -166142951#0 -1066221582 -1066221787 -1066222296#1 -1066222296#0 -137534616 25771472#0 -140964907#3 -140964907#2 -140964907#1 1072269113 1072269112#0"/>
    </vehicle>
    <vehicle id="44" depart="50615.47" type="bike_bicycle">
        <route edges="-350626781 148803125#1 -147053824#1 11391856#2 23913523#0 754029705"/>
    </vehicle>
    <vehicle id="45" depart="50622.64" type="bike_bicycle">
        <route edges="-965589216 140964915#1 140964915#2 25771472#0 25771472#1 25771472#2 -35554226#3 -35554226#2 -35554226#1 -147053824#3 -147053824#2 -147053824#1 11391856#2 11391856#3"/>
    </vehicle>
    <vehicle id="46" depart="50629.81" type="bike_bicycle">
        <route edges="-187114311 23925124#2 -166142951#1 -166142951#0 -1066221582 -1066221787 -1066222296#1 -1066222296#0 -137534616 25771472#0 -140964907#3 -140964907#2 -140964907#1 1072269113 1072269112#0"/>
    </vehicle>
    <vehicle id="47" depart="50636.98" type="bike_bicycle">
        <route edges="822124413#0 822124413#1 318210358 318210355 318210354#0 -679901152#1 -45875465 24152326#0 24152326#1 23925124#0 23925124#1 23925124#2 -166142951#1 -166142951#0 -1066221582 -1066221787 -1066222296#1 -1066222296#0 -137534616 25771472#0 25771472#1 140964910#1 140964910#2"/>
    </vehicle>
    <vehicle id="48" depart="50644.15" type="bike_bicycle">
        <route edges="-495593644#1 -495593644#0 310109409#2 140964910#3 -147053824#4 -147053824#3 -147053824#2 -147053824#1 -11389403#3 55376510#1 -55376510#1"/>
    </vehicle>
    <vehicle id="49" depart="50651.32" type="bike_bicycle">
        <route edges="822124413#0 822124413#1 318210358 318210355 318210354#0 -679901152#1 -45875465 -152839426 -178028204#9 23913525#0 -317233620 61660894 -23913525#0 178028204#9"/>
    </vehicle>
    <vehicle id="50" depart="50658.49" type="bike_bicycle">
        <route edges="-206312192#3 -206312192#2 11389403#2 -55376510#0 147053824#1 147053824#2 -146511475#0 568656006"/>
    </vehicle>
    <vehicle id="51" depart="50665.66" type="bike_bicycle">
        <route edges="-147053824#4 -140964927#4 -23913523#3 -23913523#2 754032233"/>
    </vehicle>
    <vehicle id="52" depart="50672.83" type="bike_bicycle">
        <route edges="-350626781 148803125#1 -147053824#1 -11389403#3 55376510#1 55376510#2"/>
    </vehicle>
    <vehicle id="53" depart="50680.00" type="bike_bicycle">
        <route edges="822124413#0 822124413#1 318210358 318210355 318210354#0 -679901152#1 -45875465 -152839426 -178028204#9 23913525#0 -317233620 -61660891"/>
    </vehicle>
    <vehicle id="54" depart="50687.17" type="bike_bicycle">
        <route edges="-965589216 140964915#1 140964915#2 25771472#0 25771472#1 25771472#2 -35554226#3 -35554226#2 -35554226#1 -147053824#3 -147053824#2 -147053824#1 -42857424#2 -42857424#1 -42857424#0"/>
    </vehicle>
    <vehicle id="55" depart="50694.34" type="bike_bicycle">
        <route edges="-579671869#1 -579671869#0 -166142951#0 -1066221582 -1066221787 -1066222296#1 -1066222296#0 -137534616 25771472#0 25771472#1 25771472#2 -35554226#3 -35554226#2 -35554226#1 -147053824#3 -147053824#2 -147053824#1 -11389403#3 55376510#1 -26993480"/>
    </vehicle>
    <vehicle id="56" depart="50701.51" type="bike_bicycle">
        <route edges="754029706 23913523#2 23913523#3 140964927#4 -147053824#3 -146511475#0 568656006"/>
    </vehicle>
    <vehicle id="57" depart="50708.68" type="bike_bicycle">
        <route edges="822124413#0 822124413#1 318210358 318210355 318210354#0 -679901152#1 -45875465 -152839426 -178028204#9 -178028204#4 -178028204#3 -178028203#2 -178028203#1 20554351 -310096356#2 -310096356#1 678099922"/>
    </vehicle>
    <vehicle id="58" depart="50715.85" type="bike_bicycle">
        <route edges="822124413#0 822124413#1 318210358 318210355 318210354#0 -679901152#1 -45875465 -152839426 -20553068#3 581944408"/>
    </vehicle>
    <vehicle id="59" depart="50723.02" type="bike_bicycle">
        <route edges="822124413#0 822124413#1 318210358 318210355 318210354#0 -679901152#1 -45875465 -152839426 -178028204#9 23913525#0 -317233620 -61660891"/>
    </vehicle>
    <vehicle id="60" depart="50730.19" type="bike_bicycle">
        <route edges="-568656006 146511475#0 -147053824#2 -147053824#1 -11389403#3 -11389403#2 -11389403#1 E0"/>
    </vehicle>
    <vehicle id="61" depart="50737.36" type="bike_bicycle">
        <route edges="-20553015#1 -20553015#0 20553068#1 20553068#2 20553068#3 -178028204#9 -178028204#4 -178028204#3 -178028206#2 -178028206#1"/>
    </vehicle>
    <vehicle id="62" depart="50744.53" type="bike_bicycle">
        <route edges="603469202 -149611511#1 -149611511#0 -166142951#1 -166142951#0 -1066221582 -1066221787 -1066222296#1 -1066222296#0 -137534616 25771472#0 25771472#1 25771472#2 -35554226#3 -35554226#2 -35554226#1 -147053824#3 -147053824#2 -147053824#1 -11389403#3 -11389403#2 -11389403#1 E0"/>
    </vehicle>
    <vehicle id="63" depart="50751.70" type="bike_bicycle">
        <route edges="-187114311 23925124#2 -166142951#1 -166142951#0 -1066221582 -1066221787 -1066222296#1 -1066222296#0 -137534616 25771472#0 -140964907#3 -140964907#2 -140964907#1 1072269113 1072269112#0"/>
    </vehicle>
    <vehicle id="64" depart="50758.87" type="bike_bicycle">
        <route edges="822124413#1 318210358 318210355 318210354#0 -679901152#1 -45875465 -152839426 -20553068#3 581944408"/>
    </vehicle>
    <vehicle id="65" depart="50766.04" type="bike_bicycle">
        <route edges="-678099923 -310096356#1 -310096356#0 19589130#4 -1072269113 -147053824#5 -140964910#3 -140964910#2 -140964910#1 25771472#2"/>
    </vehicle>
    <vehicle id="66" depart="50773.21" type="bike_bicycle">
        <route edges="25771472#2 -35554226#3 -35554226#2 -35554226#1 -147053824#3 -147053824#2 -147053824#1 -42857424#2 -42857424#1 -42857424#0"/>
    </vehicle>
    <vehicle id="67" depart="50780.38" type="bike_bicycle">
        <route edges="-187114311 23925124#2 -166142951#1 -166142951#0 -1066221582 -1066221787 -1066222296#1 -1066222296#0 -137534616 25771472#0 -140964907#3 -140964907#2 -140964907#1 1072269113 1072269112#0"/>
    </vehicle>
    <vehicle id="68" depart="50787.55" type="bike_bicycle">
        <route edges="822124413#0 822124413#1 318210358 318210355 318210354#0 -679901152#1 -45875465 -152839426 -178028204#9 23913525#0 -317233620 -61660891"/>
    </vehicle>
    <vehicle id="69" depart="50794.72" type="bike_bicycle">
        <route edges="822124413#0 822124413#1 318210358 318210355 318210354#0 -679901152#1 -45875465 -152839426 -178028204#9 23913525#0 -317233620 61660894 -23913525#0 178028204#9"/>
    </vehicle>
    <vehicle id="70" depart="50801.89" type="bike_bicycle">
        <route edges="886496552#0 886496552#1 -23919022#0 -149611511#2 -149611511#1 -149611511#0 -23925124#2 -23925124#1 -23925124#0 -24152326#1 -24152326#0 -152839426 -178028204#9"/>
    </vehicle>
    <vehicle id="71" depart="50809.06" type="bike_bicycle">
        <route edges="-23925122#1 23925122#1 23925123#1 -24152326#0 -152839426 -178028204#9 23913525#0 -317233620 -61660891"/>
    </vehicle>
    <vehicle id="72" depart="50816.23" type="bike_bicycle">
        <route edges="23788323 -178028204#3 -178028203#2 -178028203#1 -1072269112#0 -1072269113 -147053824#5 -147053824#4 -147053824#3 -147053824#2 -148803125#1 -148803125#0 148803132#1 -45336120#0 -148803138#2 -148803138#1"/>
    </vehicle>
    <vehicle id="73" depart="50823.40" type="bike_bicycle">
        <route edges="140964915#2 25771472#0 25771472#1 25771472#2 -35554226#3 -35554226#2 -35554226#1 -147053824#3 -147053824#2 -147053824#1 -11389403#3 -11389403#2 206312192#2 206312192#3"/>
    </vehicle>
    <vehicle id="74" depart="50830.57" type="bike_bicycle">
        <route edges="149611511#1 603469201 603469202 -149611511#1 -149611511#0 -166142951#1 -166142951#0 -1066221582 -1066221787 -1066222296#1 -1066222296#0 -137534616 25771472#0 25771472#1 25771472#2 -35554226#3 -35554226#2 -35554226#1 -147053824#3 -147053824#2 -147053824#1 -11389403#3 -11389403#2 206312192#2 206312192#3"/>
    </vehicle>
    <vehicle id="75" depart="50837.74" type="bike_bicycle">
        <route edges="-187114311 23925124#2 -166142951#1 -166142951#0 -1066221582 -1066221787 -1066222296#1 -1066222296#0 -137534616 25771472#0 -140964907#3 -140964907#2 -140964907#1 1072269113 1072269112#0"/>
    </vehicle>
    <vehicle id="76" depart="50844.91" type="bike_bicycle">
        <route edges="-187114311 23925124#2 -166142951#1 -166142951#0 -1066221582 -1066221787 -1066222296#1 -1066222296#0 -137534616 25771472#0 -140964907#3 -140964907#2 -140964907#1 1072269113 1072269112#0"/>
    </vehicle>
    <vehicle id="77" depart="50852.08" type="bike_bicycle">
        <route edges="822124413#0 822124413#1 318210358 318210355 318210354#0 -679901152#1 -45875465 24152326#0 24152326#1 23925124#0 23925124#1 23925124#2 149611511#0 149611511#1 149611511#2 23919022#0"/>
    </vehicle>
    <vehicle id="78" depart="50859.25" type="bike_bicycle">
        <route edges="23913523#5 -23913523#5 -23913523#4 140964927#4 -147053824#3 -147053824#2 -147053824#1 -11389403#3 55376510#1 55376510#2"/>
    </vehicle>
    <vehicle id="79" depart="50866.42" type="bike_bicycle">
        <route edges="822124413#0 822124413#1 318210358 318210355 318210354#0 -679901152#1 -45875465 -152839426 -178028204#9 23913525#0 -317233620 61660894 -23913525#0 178028204#9"/>
    </vehicle>
    <vehicle id="80" depart="50873.58" type="bike_bicycle">
        <route edges="603469202 -149611511#1 -149611511#0 -166142951#1 -166142951#0 -1066221582 -1066221787 -1066222296#1 -1066222296#0 -137534616 25771472#0 25771472#1 25771472#2 -35554226#3 -35554226#2 -35554226#1 -147053824#3 -147053824#2 -148803125#1 350626781"/>
    </vehicle>
    <vehicle id="81" depart="50880.75" type="bike_bicycle">
        <route edges="11389403#2 -55376510#0 147053824#1 147053824#2 147053824#3 147053824#4 147053824#5 1072269113 1072269112#0 178028203#1 178028203#2 178028204#1 178028204#4 178028204#9 166142947#1 -187123053#6 -187123053#5 -187123053#4 -187123053#3"/>
    </vehicle>
    <vehicle id="82" depart="50887.92" type="bike_bicycle">
        <route edges="822124413#0 822124413#1 318210358 318210355 318210354#0 -679901152#1 -45875465 -152839426 -178028204#9 23913525#0 -317233620 -61660891"/>
    </vehicle>
    <vehicle id="83" depart="50895.09" type="bike_bicycle">
        <route edges="822124413#0 822124413#1 318210358 318210355 318210354#0 -679901152#1 -45875465 -152839426 -178028204#9 23913525#0 -317233620 -61660891"/>
    </vehicle>
    <vehicle id="84" depart="50902.26" type="bike_bicycle">
        <route edges="603469202 -149611511#1 -149611511#0 -166142951#1 -166142951#0 -1066221582 -1066221787 -1066222296#1 -1066222296#0 -137534616 25771472#0 25771472#1 25771472#2 -35554226#3 -35554226#2 -35554226#1 -147053824#3 -147053824#2 -147053824#1 -11389403#3 55376510#1 -26993480"/>
    </vehicle>
    <vehicle id="85" depart="50909.43" type="bike_bicycle">
        <route edges="886496552#0 886496552#1 -23919022#0 -149611511#2 -149611511#1 -149611511#0 -23925124#2 -23925124#1 -23925124#0 -24152326#1 -24152326#0 -152839426 -178028204#9"/>
    </vehicle>
    <vehicle id="86" depart="50916.60" type="bike_bicycle">
        <route edges="23913525#1 -23913525#1 -23913525#0 178028204#9 166142947#1 -152839428 679901152#0 206889086#1 152839448#0 541676219"/>
    </vehicle>
    <vehicle id="87" depart="50923.77" type="bike_bicycle">
        <route edges="-579671869#1 -579671869#0 -166142951#0 -1066221582 -1066221787 -1066222296#1 -1066222296#0 -137534616 25771472#0 25771472#1 25771472#2 -35554226#3 -35554226#2 -35554226#1 -147053824#3 -147053824#2 -147053824#1 -11389403#3 55376510#1 -26993480"/>
    </vehicle>
    <vehicle id="88" depart="50930.94" type="bike_bicycle">
        <route edges="809228515 140964915#2 25771472#0 25771472#1 25771472#2 -35554226#3 -35554226#2 -35554226#1 -147053824#3 -147053824#2 -147053824#1 -11389403#3 -11389403#2 -11389403#1 E0"/>
    </vehicle>
    <vehicle id="89" depart="50938.11" type="bike_bicycle">
        <route edges="886496552#0 886496552#1 -23919022#0 -149611511#2 -149611511#1 -149611511#0 -166142951#1 -166142951#0 -1066221582 -1066221787 -1066222296#1 -1066222296#0 -137534616 25771472#0 25771472#1 25771472#2 -35554226#3 -35554226#2 -35554226#1 -147053824#3 -147053824#2 -147053824#1 -11389403#3 -11389403#2 -11389403#1 E0"/>
    </vehicle>
    <vehicle id="90" depart="50945.28" type="bike_bicycle">
        <route edges="-568656006 146511475#0 147053824#3 147053824#4 147053824#5 1072269113 -19589130#4 310096356#0 310096356#1 678099923"/>
    </vehicle>
    <vehicle id="91" depart="50952.45" type="bike_bicycle">
        <route edges="-568656006 146511475#0 147053824#3 147053824#4 147053824#5 1072269113 -19589130#4 -19589130#3 19589130#3 19589130#4"/>
    </vehicle>
    <vehicle id="92" depart="50959.62" type="bike_bicycle">
        <route edges="11389403#2 -55376510#0 147053824#1 147053824#2 147053824#3 147053824#4 147053824#5 1072269113 1072269112#0 178028203#1 178028203#2 178028204#1 178028204#4 178028204#9 166142947#1 -187123053#6 -187123053#5 -187123053#4 -187123053#3"/>
    </vehicle>
    <vehicle id="93" depart="50966.79" type="bike_bicycle">
        <route edges="-187114311 23925124#2 -166142951#1 -166142951#0 -1066221582 -1066221787 -1066222296#1 -1066222296#0 -137534616 25771472#0 -140964907#3 -140964907#2 -140964907#1 1072269113 1072269112#0"/>
    </vehicle>
    <vehicle id="94" depart="50973.96" type="bike_bicycle">
        <route edges="-350626781 148803125#1 -147053824#1 -11389403#3 -11389403#2 -206312192#1 -238053701 -238053696 -238053694"/>
    </vehicle>
    <vehicle id="95" depart="50981.13" type="bike_bicycle">
        <route edges="-187114311 23925124#2 -166142951#1 -166142951#0 -1066221582 -1066221787 -1066222296#1 -1066222296#0 -137534616 25771472#0 -140964907#3 -140964907#2 -140964907#1 1072269113 1072269112#0"/>
    </vehicle>
    <vehicle id="96" depart="50988.30" type="bike_bicycle">
        <route edges="42857424#0 42857424#1 42857424#2 147053824#1 147053824#2 147053824#3 147053824#4 147053824#5 1072269113 -19589130#4 310096356#0 678099922"/>
    </vehicle>
    <vehicle id="97" depart="50995.47" type="bike_bicycle">
        <route edges="822124413#0 822124413#1 318210358 318210355 318210354#0 -679901152#1 -45875465 -152839426 -178028204#9 23913525#0 -317233620 -61660891"/>
    </vehicle>
    <vehicle id="98" depart="51002.64" type="bike_bicycle">
        <route edges="-187114311 23925124#2 -166142951#1 -166142951#0 -1066221582 -1066221787 -1066222296#1 -1066222296#0 -137534616 25771472#0 -140964907#3 -140964907#2 -140964907#1 1072269113 1072269112#0"/>
    </vehicle>
    <vehicle id="99" depart="51009.81" type="bike_bicycle">
        <route edges="886496552#0 886496552#1 -23919022#0 -149611511#2 -149611511#1 -149611511#0 -166142951#1 -166142951#0 -1066221582 -1066221787 -1066222296#1 -1066222296#0 -137534616 25771472#0 25771472#1 25771472#2 -35554226#3 -35554226#2 -35554226#1 -147053824#3 -147053824#2 -147053824#1 -11389403#3 -11389403#2 -11389403#1 E0"/>
    </vehicle>
    <vehicle id="100" depart="51016.98" type="bike_bicycle">
        <route edges="822124413#0 822124413#1 318210358 318210355 318210354#0 -679901152#1 -45875465 -152839426 -178028204#9 23913525#0 -317233620 -61660891"/>
    </vehicle>
    <vehicle id="101" depart="51024.15" type="bike_bicycle">
        <route edges="963199166 61660894 -23913525#0 178028204#9 166142947#1 -152839428 679901152#0 72230304#1 461514282#0 461514282#1"/>
    </vehicle>
    <vehicle id="102" depart="51031.32" type="bike_bicycle">
        <route edges="-187114311 23925124#2 -166142951#1 -166142951#0 -1066221582 -1066221787 -1066222296#1 -1066222296#0 -137534616 25771472#0 -140964907#3 -140964907#2 -140964907#1 1072269113 1072269112#0"/>
    </vehicle>
    <vehicle id="103" depart="51038.49" type="bike_bicycle">
        <route edges="87846825#0 87846825#1 1093549550#1 146511475#0 -147053824#2 -147053824#1 -11389403#3 -11389403#2 206312192#2 206312192#3"/>
    </vehicle>
    <vehicle id="104" depart="51045.66" type="bike_bicycle">
        <route edges="822124413#0 822124413#1 318210358 318210355 318210354#0 -679901152#1 -45875465 -152839426 -178028204#9 23913525#0 -317233620 61660894 -23913525#0 178028204#9"/>
    </vehicle>
    <vehicle id="105" depart="51052.83" type="bike_bicycle">
        <route edges="822124413#0 822124413#1 318210358 318210355 318210354#0 -679901152#1 -45875465 -152839426 -20553068#3 581944408"/>
    </vehicle>
    <vehicle id="106" depart="51060.00" type="bike_bicycle">
        <route edges="822124413#0 822124413#1 318210358 318210355 318210354#0 -679901152#1 -45875465 -152839426 -178028204#9 23913525#0 -317233620 61660894 -23913525#0 178028204#9"/>
    </vehicle>
    <vehicle id="107" depart="51067.17" type="bike_bicycle">
        <route edges="178028203#1 178028203#2 178028204#1 178028204#4 178028204#9 -20553068#3 581944408"/>
    </vehicle>
    <vehicle id="108" depart="51074.34" type="bike_bicycle">
        <route edges="-187114311 23925124#2 -166142951#1 -166142951#0 -1066221582 -1066221787 -1066222296#1 -1066222296#0 -137534616 25771472#0 -140964907#3 -140964907#2 -140964907#1 1072269113 1072269112#0"/>
    </vehicle>
    <vehicle id="109" depart="51081.51" type="bike_bicycle">
        <route edges="-568656006 146511475#0 -147053824#2 -147053824#1 -11389403#3 55376510#1 55376510#2"/>
    </vehicle>
    <vehicle id="110" depart="51088.68" type="bike_bicycle">
        <route edges="822124413#0 822124413#1 318210358 318210355 318210354#0 -679901152#1 -45875465 -152839426 -178028204#9 23913525#0 -317233620 61660894 -23913525#0 178028204#9"/>
    </vehicle>
    <vehicle id="111" depart="51095.85" type="bike_bicycle">
        <route edges="148803127#0 148803132#0 148803125#0 148803125#1 -147053824#1 11391856#2 23913523#0 754029705"/>
    </vehicle>
    <vehicle id="112" depart="51103.02" type="bike_bicycle">
        <route edges="-23925122#1 23925122#1 23925123#1 -24152326#0 -152839426 -178028204#9 23913525#0 -317233620 -61660891"/>
    </vehicle>
    <vehicle id="113" depart="51110.19" type="bike_bicycle">