<?xml version="1.0" encoding="UTF-8"?>

<!-- generated on 2023-06-20 11:22:43.827404 by routeSampler.py v1_17_0+0966-791c67e8cd8
<configuration>
    <route-files value="osm.bicycle.rou.xml"/>
    <turn-ratio-files value="turn_ratio.xml"/>
    <edgedata-files value="edge_data_bike.xml"/>
    <turn-ratio-attribute value="ratio"/>
    <output-file value="samplertrips_bike.rou.xml"/>
    <attributes value="type=&quot;bike_bicycle&quot;"/>
    <mismatch-output value="mismatch_bike.xml"/>
</configuration>
-->

<routes xmlns:xsi="http://www.w3.org/2001/XMLSchema-instance" xsi:noNamespaceSchemaLocation="http://sumo.dlr.de/xsd/routes_file.xsd">
<!-- begin="50300.0" end="54100.0" -->
	<vType id="bike_bicycle" vClass="bicycle"/>
	<vehicle id="0" depart="50300.00" type="bike_bicycle">
        <route edges="148803127#0 148803132#0 148803125#0 148803125#1 -147053824#1 -11389403#3 55376510#1 -26993480"/>
    </vehicle>
    <vehicle id="1" depart="50307.71" type="bike_bicycle">
        <route edges="754032234 23913523#2 23913523#3 140964927#4 147053824#4 147053824#5 140964907#1 140964907#2 140964907#3 -25771472#0 137534616 1066222296#0 1066222296#1 1066221786 1066221582 20553068#0"/>
    </vehicle>
    <vehicle id="2" depart="50315.42" type="bike_bicycle">
        <route edges="822124413#0 822124413#1 318210358 318210355 318210354#0 -679901152#1 -45875465 -152839426 -178028204#9 -178028204#9.72 23913525#0 -317233620 61660894 -23913525#0 178028204#9 178028204#9.13"/>
    </vehicle>
    <vehicle id="3" depart="50323.12" type="bike_bicycle">
        <route edges="822124413#0 822124413#1 318210358 318210355 318210354#0 -679901152#1 -45875465 -152839426 -178028204#9 -178028204#9.72 23913525#0 -317233620 61660894 -23913525#0 178028204#9 178028204#9.13"/>
    </vehicle>
    <vehicle id="4" depart="50330.83" type="bike_bicycle">
        <route edges="148803127#0 148803127#1 148803147#3 1093549448#2 1093549489#1 1093549550#1 146511475#0 147053824#3 147053824#4 147053824#5 1072269113 1072269112#0 178028203#1 178028203#2 178028204#1 178028204#4 23913525#0 -317233620 -61660891"/>
    </vehicle>
    <vehicle id="5" depart="50338.54" type="bike_bicycle">
        <route edges="-23913523#5 -23913523#4 140964927#4 -147053824#3 -146511475#0 568656006"/>
    </vehicle>
    <vehicle id="6" depart="50346.25" type="bike_bicycle">
        <route edges="-350626781 148803125#1 -147053824#1 -11389403#3 -11389403#2 -206312192#1 -238053701 -238053696 -238053694"/>
    </vehicle>
    <vehicle id="7" depart="50353.96" type="bike_bicycle">
        <route edges="-25771472#1 25771472#1 25771472#2 -35554226#3 -35554226#2 -35554226#1 -147053824#3 -147053824#2 -147053824#1 -11389403#3 -11389403#2 206312192#2 206312192#3"/>
    </vehicle>
    <vehicle id="8" depart="50361.66" type="bike_bicycle">
        <route edges="822124413#0 822124413#1 318210358 318210355 318210354#0 -679901152#1 -45875465 -152839426 -178028204#9 -178028204#9.72 23913525#0 -317233620 61660894 -23913525#0 178028204#9 178028204#9.13"/>
    </vehicle>
    <vehicle id="9" depart="50369.37" type="bike_bicycle">
        <route edges="-55376510#2 -55376510#1 -55376510#0 147053824#1 147053824#2 147053824#3 147053824#4 147053824#5 1072269113 1072269112#0 178028203#1 178028203#2 178028204#1 178028204#4 178028204#9 178028204#9.13 166142947#1 -152839428 679901152#0 72230304#1 461514282#0 461514282#1"/>
    </vehicle>
    <vehicle id="10" depart="50377.08" type="bike_bicycle">
        <route edges="-23925122#1 23925122#1 23925123#1 -24152326#0 -152839426 -178028204#9 -178028204#9.72 23913525#0 -317233620 -61660891"/>
    </vehicle>
    <vehicle id="11" depart="50384.79" type="bike_bicycle">
        <route edges="603469202 -149611511#1 -149611511#0 -166142951#1 -166142951#0 -1066221582 -1066221787 -1066222296#1 -1066222296#0 -137534616 25771472#0 25771472#1 25771472#2 -35554226#3 -35554226#2 -35554226#1 -147053824#3 -147053824#2 -147053824#1 -11389403#3 -11389403#2 -11389403#1 E0"/>
    </vehicle>
    <vehicle id="12" depart="50392.49" type="bike_bicycle">
        <route edges="87846825#0 87846825#1 1093549550#1 146511475#0 -147053824#2 -147053824#1 11391856#2 23913523#0 23913523#2"/>
    </vehicle>
    <vehicle id="13" depart="50400.20" type="bike_bicycle">
        <route edges="-147053824#5 -140964910#3 -310109409#2 310109409#2 140964910#3 147053824#5 1072269113 -19589130#4 -19589130#3 -23913523#5"/>
    </vehicle>
    <vehicle id="14" depart="50407.91" type="bike_bicycle">
        <route edges="-965589216 140964915#1 140964915#2 25771472#0 25771472#1 25771472#2 -35554226#3 -35554226#2 -35554226#1 -147053824#3 -147053824#2 -148803125#1 350626781"/>
    </vehicle>
    <vehicle id="15" depart="50415.62" type="bike_bicycle">
        <route edges="822124413#0 822124413#1 318210358 318210355 318210354#0 -679901152#1 -45875465 -152839426 -178028204#9 -178028204#9.72 23913525#0 -317233620 61660894 -23913525#0 178028204#9 178028204#9.13"/>
    </vehicle>
    <vehicle id="16" depart="50423.33" type="bike_bicycle">
        <route edges="-568656006 146511475#0 -147053824#2 -147053824#1 -11389403#3 -11389403#2 -11389403#1 E0"/>
    </vehicle>
    <vehicle id="17" depart="50431.03" type="bike_bicycle">
        <route edges="42857424#0 42857424#1 42857424#2 147053824#1 147053824#2 -146511475#0 -1093549550#1 -87846825#1 -87846825#0"/>
    </vehicle>
    <vehicle id="18" depart="50438.74" type="bike_bicycle">
        <route edges="822124413#0 822124413#1 318210358 318210355 318210354#0 -679901152#1 -45875465 -152839426 -178028204#9 -178028204#9.72 23913525#0 -317233620 -61660891"/>
    </vehicle>
    <vehicle id="19" depart="50446.45" type="bike_bicycle">
        <route edges="822124413#0 822124413#1 318210358 318210355 318210354#0 -679901152#1 -45875465 -152839426 -178028204#9 -178028204#9.72 -178028204#4"/>
    </vehicle>
    <vehicle id="20" depart="50454.16" type="bike_bicycle">
        <route edges="822124413#0 822124413#1 318210358 318210355 318210354#0 -679901152#1 -45875465 24152326#0 24152326#1 23925124#0 23925124#1 23925124#2 -166142951#1 -166142951#0 -1066221582 -1066221787 -1066222296#1 -1066222296#0 -137534616 25771472#0 25771472#1 25771472#2 35554229#0 35554229#1 35215636"/>
    </vehicle>
    <vehicle id="21" depart="50461.87" type="bike_bicycle">
        <route edges="754029706 23913523#2 23913523#3 140964927#4 -147053824#3 -146511475#0 568656006"/>
    </vehicle>
    <vehicle id="22" depart="50469.57" type="bike_bicycle">
        <route edges="822124413#0 822124413#1 318210358 318210355 318210354#0 -679901152#1 -45875465 24152326#0 24152326#1 23925124#0 23925124#1 23925124#2 -166142951#1 -166142951#0 -1066221582 -1066221787 -1066222296#1 -1066222296#0 -137534616 25771472#0 25771472#1 25771472#2 35554229#0 35554229#1 35215636"/>
    </vehicle>
    <vehicle id="23" depart="50477.28" type="bike_bicycle">
        <route edges="822124413#0 822124413#1 318210358 318210355 318210354#0 -679901152#1 -45875465 -152839426 -20553068#3 581944408"/>
    </vehicle>
    <vehicle id="24" depart="50484.99" type="bike_bicycle">
        <route edges="822124413#0 822124413#1 318210358 318210355 318210354#0 -679901152#1 -45875465 -152839426 -178028204#9 -178028204#9.72 -178028204#4 -178028204#3 -178028203#2 -178028203#1 20554351 -310096356#2 -310096356#1 -310096356#0 -19589130#3 -23913523#5 -23913523#4 -23913523#3 715441384"/>
    </vehicle>
    <vehicle id="25" depart="50492.70" type="bike_bicycle">
        <route edges="822124413#0 822124413#1 318210358 318210355 318210354#0 -679901152#1 -45875465 -152839426 -178028204#9 -178028204#9.72 23913525#0 -317233620 61660894 -23913525#0 178028204#9 178028204#9.13"/>
    </vehicle>
    <vehicle id="26" depart="50500.41" type="bike_bicycle">
        <route edges="-579671869#1 -579671869#0 -166142951#0 -1066221582 -1066221787 -1066222296#1 -1066222296#0 -137534616 25771472#0 25771472#1 25771472#2 -35554226#3 -35554226#2 -35554226#1 -147053824#3 -147053824#2 -147053824#1 -11389403#3 55376510#1 55376510#2"/>
    </vehicle>
    <vehicle id="27" depart="50508.11" type="bike_bicycle">
        <route edges="-678099923 -310096356#1 -310096356#0 19589130#4 -1072269113 -147053824#5 -147053824#4 -147053824#3 -147053824#2 -147053824#1 -11389403#3 -11389403#2 -11389403#1 E0"/>
    </vehicle>
    <vehicle id="28" depart="50515.82" type="bike_bicycle">
        <route edges="-187114311 23925124#2 -166142951#1 -166142951#0 -1066221582 -1066221787 -1066222296#1 -1066222296#0 -137534616 25771472#0 -140964907#3 -140964907#2 -140964907#1 1072269113 1072269112#0"/>
    </vehicle>
    <vehicle id="29" depart="50523.53" type="bike_bicycle">
        <route edges="809228515 140964915#2 25771472#0 25771472#1 25771472#2 -35554226#3 -35554226#2 -35554226#1 -147053824#3 -147053824#2 -147053824#1 -11389403#3 -11389403#2 -11389403#1 E0"/>
    </vehicle>
    <vehicle id="30" depart="50531.24" type="bike_bicycle">
        <route edges="-23925122#1 23925122#1 23925123#1 -24152326#0 -152839426 -178028204#9 -178028204#9.72 23913525#0 -317233620 -61660891"/>
    </vehicle>
    <vehicle id="31" depart="50538.95" type="bike_bicycle">
        <route edges="-965589216 140964915#1 140964915#2 25771472#0 25771472#1 25771472#2 -35554226#3 -35554226#2 -35554226#1 -147053824#3 -147053824#2 -147053824#1 -42857424#2 -42857424#1 -42857424#0"/>
    </vehicle>
    <vehicle id="32" depart="50546.65" type="bike_bicycle">
        <route edges="-25771472#1 25771472#1 25771472#2 -35554226#3 -35554226#2 -35554226#1 -147053824#3 -147053824#2 -147053824#1 -11389403#3 -11389403#2 206312192#2 206312192#3"/>
    </vehicle>
    <vehicle id="33" depart="50554.36" type="bike_bicycle">
        <route edges="87846825#0 87846825#1 1093549550#1 146511475#0 -147053824#2 -147053824#1 11391856#2 23913523#0 23913523#2"/>
    </vehicle>
    <vehicle id="34" depart="50562.07" type="bike_bicycle">
        <route edges="822124413#0 822124413#1 318210358 318210355 318210354#0 -679901152#1 -45875465 -152839426 -178028204#9 -178028204#9.72 23913525#0 -317233620 61660894 -23913525#0 178028204#9 178028204#9.13"/>
    </vehicle>
    <vehicle id="35" depart="50569.78" type="bike_bicycle">
        <route edges="-965589216 140964915#1 140964915#2 25771472#0 25771472#1 25771472#2 -35554226#3 -35554226#2 -35554226#1 -147053824#3 -147053824#2 -148803125#1 350626781"/>
    </vehicle>
    <vehicle id="36" depart="50577.48" type="bike_bicycle">
        <route edges="822124413#0 822124413#1 318210358 318210355 318210354#0 -679901152#1 -45875465 -152839426 -178028204#9 -178028204#9.72 -178028204#4"/>
    </vehicle>
    <vehicle id="37" depart="50585.19" type="bike_bicycle">
        <route edges="-568656006 146511475#0 -147053824#2 -148803125#1 350626781"/>
    </vehicle>
    <vehicle id="38" depart="50592.90" type="bike_bicycle">
        <route edges="-350626781 148803125#1 147053824#2 147053824#3 -140964927#4 140964927#4"/>
    </vehicle>
    <vehicle id="39" depart="50600.61" type="bike_bicycle">
        <route edges="822124413#0 822124413#1 318210358 318210355 318210354#0 -679901152#1 -45875465 -152839426 -178028204#9 -178028204#9.72 23913525#0 -317233620 -61660891"/>
    </vehicle>
    <vehicle id="40" depart="50608.32" type="bike_bicycle">
        <route edges="822124413#0 822124413#1 318210358 318210355 318210354#0 -679901152#1 -45875465 -152839426 -178028204#9 -178028204#9.72 23913525#0 -317233620 61660894 -23913525#0 178028204#9 178028204#9.13"/>
    </vehicle>
    <vehicle id="41" depart="50616.02" type="bike_bicycle">
        <route edges="822124413#0 822124413#1 318210358 318210355 318210354#0 -679901152#1 -45875465 -152839426 -178028204#9 -178028204#9.72 23913525#0 -317233620 61660894 -23913525#0 178028204#9 178028204#9.13"/>
    </vehicle>
    <vehicle id="42" depart="50623.73" type="bike_bicycle">
        <route edges="-495593644#1 -495593644#0 310109409#2 140964910#3 147053824#5 1072269113 -19589130#4 -19589130#3 -19589130#2"/>
    </vehicle>
    <vehicle id="43" depart="50631.44" type="bike_bicycle">
        <route edges="822124413#0 822124413#1 318210358 318210355 318210354#0 -679901152#1 -45875465 -152839426 -178028204#9 -178028204#9.72 23913525#0 -317233620 -61660891"/>
    </vehicle>
    <vehicle id="44" depart="50639.15" type="bike_bicycle">
        <route edges="822124413#0 822124413#1 318210358 318210355 318210354#0 -679901152#1 -45875465 -152839426 -178028204#9 -178028204#9.72 -178028204#4"/>
    </vehicle>
    <vehicle id="45" depart="50646.86" type="bike_bicycle">
        <route edges="822124413#0 822124413#1 318210358 318210355 318210354#0 -679901152#1 -45875465 -152839426 -178028204#9 -178028204#9.72 23913525#0 -317233620 61660894 -23913525#0 178028204#9 178028204#9.13"/>
    </vehicle>
    <vehicle id="46" depart="50654.56" type="bike_bicycle">
        <route edges="822124413#0 822124413#1 318210358 318210355 318210354#0 -679901152#1 -45875465 -152839426 -178028204#9 -178028204#9.72 23913525#0 -317233620 61660894 -23913525#0 178028204#9 178028204#9.13"/>
    </vehicle>
    <vehicle id="47" depart="50662.27" type="bike_bicycle">
        <route edges="147053824#1 147053824#2 147053824#3 147053824#4 147053824#5 1072269113 1072269112#0 140964915#0 140964915#1 -809228515"/>
    </vehicle>
    <vehicle id="48" depart="50669.98" type="bike_bicycle">
        <route edges="-23925122#1 23925122#1 23925123#1 -24152326#0 -152839426 -178028204#9 -178028204#9.72 23913525#0 -317233620 -61660891"/>
    </vehicle>
    <vehicle id="49" depart="50677.69" type="bike_bicycle">
        <route edges="-23925122#1 23925122#1 23925123#1 -24152326#0 -152839426 -178028204#9 -178028204#9.72 23913525#0 -317233620 -61660891"/>
    </vehicle>
    <vehicle id="50" depart="50685.40" type="bike_bicycle">
        <route edges="-23925122#1 23925122#1 23925123#1 -24152326#0 -152839426 -178028204#9 -178028204#9.72 -178028204#4 -178028204#3 -178028203#2 -178028203#1 -1072269112#0 -1072269113 -147053824#5 -147053824#4 -147053824#3 -147053824#2 -147053824#1 -11389403#3 -11389403#2 206312192#2 206312192#3"/>
    </vehicle>
    <vehicle id="51" depart="50693.10" type="bike_bicycle">
        <route edges="-187114311 23925124#2 -166142951#1 -166142951#0 -1066221582 -1066221787 -1066222296#1 -1066222296#0 -137534616 25771472#0 -140964907#3 -140964907#2 -140964907#1 1072269113 1072269112#0"/>
    </vehicle>
    <vehicle id="52" depart="50700.81" type="bike_bicycle">
        <route edges="822124413#0 822124413#1 318210358 318210355 318210354#0 -679901152#1 -45875465 -152839426 -178028204#9 -178028204#9.72 -178028204#4 -178028204#3 -178028203#2 -178028203#1 -1072269112#0 -1072269113 -147053824#5 -147053824#4 -147053824#3 -146511475#0 568656006"/>
    </vehicle>
    <vehicle id="53" depart="50708.52" type="bike_bicycle">
        <route edges="20554168 178028206#1 178028206#2 -178028203#2 -178028203#1 20554351 -310096356#2 -310096356#1 -310096356#0 -19589130#3 -23913523#5 -23913523#4 -23913523#3 -23913523#2 754032233"/>
    </vehicle>
    <vehicle id="54" depart="50716.23" type="bike_bicycle">
        <route edges="310109409#0 310109409#1 310109409#2 140964910#3 -147053824#4 -147053824#3 -147053824#2 -148803125#1 -148803125#0"/>
    </vehicle>
    <vehicle id="55" depart="50723.94" type="bike_bicycle">
        <route edges="-55376510#2 -55376510#1 -55376510#0 147053824#1 147053824#2 147053824#3 147053824#4 147053824#5 1072269113 1072269112#0 178028203#1 178028203#2 178028204#1 178028204#4 178028204#9 178028204#9.13 166142947#1 -152839428 679901152#0 72230304#1 461514282#0 461514282#1"/>
    </vehicle>
    <vehicle id="56" depart="50731.64" type="bike_bicycle">
        <route edges="140964915#2 25771472#0 25771472#1 25771472#2 -35554226#3 -35554226#2 -35554226#1 -147053824#3 -147053824#2 -147053824#1 -11389403#3 -11389403#2 206312192#2 206312192#3"/>
    </vehicle>
    <vehicle id="57" depart="50739.35" type="bike_bicycle">
        <route edges="822124413#0 822124413#1 318210358 318210355 318210354#0 -679901152#1 -45875465 -152839426 -178028204#9 -178028204#9.72 23913525#0 -317233620 61660894 -23913525#0 178028204#9 178028204#9.13"/>
    </vehicle>
    <vehicle id="58" depart="50747.06" type="bike_bicycle">
        <route edges="-568656006 146511475#0 147053824#3 -140964927#4 -140964927#3 -140964927#2 -19585417#0"/>
    </vehicle>
    <vehicle id="59" depart="50754.77" type="bike_bicycle">
        <route edges="886496552#0 886496552#1 -23919022#0 -149611511#2 -149611511#1 -149611511#0 -23925124#2 -23925124#1 -23925124#0 -24152326#1 -24152326#0 -152839426 -178028204#9"/>
    </vehicle>
    <vehicle id="60" depart="50762.47" type="bike_bicycle">
        <route edges="603469202 -149611511#1 -149611511#0 -166142951#1 -166142951#0 -1066221582 -1066221787 -1066222296#1 -1066222296#0 -137534616 25771472#0 25771472#1 25771472#2 -35554226#3 -35554226#2 -35554226#1 -147053824#3 -147053824#2 -147053824#1 -11389403#3 55376510#1 -26993480"/>
    </vehicle>
    <vehicle id="61" depart="50770.18" type="bike_bicycle">
        <route edges="87846825#0 87846825#1 1093549550#1 146511475#0 -147053824#2 -147053824#1 11391856#2 23913523#0 23913523#2"/>
    </vehicle>
    <vehicle id="62" depart="50777.89" type="bike_bicycle">
        <route edges="-187114311 23925124#2 -166142951#1 -166142951#0 -1066221582 -1066221787 -1066222296#1 -1066222296#0 -137534616 25771472#0 -140964907#3 -140964907#2 -140964907#1 1072269113 1072269112#0"/>
    </vehicle>
    <vehicle id="63" depart="50785.60" type="bike_bicycle">
        <route edges="-23925122#1 23925122#1 23925123#1 -24152326#0 -152839426 -178028204#9 -178028204#9.72 23913525#0 -317233620 -61660891"/>
    </vehicle>
    <vehicle id="64" depart="50793.31" type="bike_bicycle">
        <route edges="-568656006 146511475#0 147053824#3 147053824#4 147053824#5 1072269113 -19589130#4 310096356#0 310096356#1 678099923"/>
    </vehicle>
    <vehicle id="65" depart="50801.01" type="bike_bicycle">
        <route edges="603469202 -149611511#1 -149611511#0 -166142951#1 -166142951#0 -1066221582 -1066221787 -1066222296#1 -1066222296#0 -137534616 25771472#0 25771472#1 25771472#2 -35554226#3 -35554226#2 -35554226#1 -147053824#3 -147053824#2 -148803125#1 350626781"/>
    </vehicle>
    <vehicle id="66" depart="50808.72" type="bike_bicycle">
        <route edges="886496552#0 886496552#1 -23919022#0 -149611511#2 -149611511#1 -149611511#0 -23925124#2 -23925124#1 -23925124#0 -24152326#1 -24152326#0 -152839426 -178028204#9"/>
    </vehicle>
    <vehicle id="67" depart="50816.43" type="bike_bicycle">
        <route edges="754032234 23913523#2 23913523#3 140964927#4 147053824#4 147053824#5 140964907#1 140964907#2 140964907#3 -25771472#0 137534616 1066222296#0 1066222296#1 1066221786 1066221582 20553068#0"/>
    </vehicle>
    <vehicle id="68" depart="50824.14" type="bike_bicycle">
        <route edges="822124413#0 822124413#1 318210358 318210355 318210354#0 -679901152#1 -45875465 -152839426 -178028204#9 -178028204#9.72 23913525#0 -317233620 61660894 -23913525#0 178028204#9 178028204#9.13"/>
    </vehicle>
    <vehicle id="69" depart="50831.85" type="bike_bicycle">
        <route edges="-23925122#1 23925122#1 23925123#1 -24152326#0 -152839426 -178028204#9 -178028204#9.72 23913525#0 -317233620 -61660891"/>
    </vehicle>
    <vehicle id="70" depart="50839.55" type="bike_bicycle">
        <route edges="822124413#0 822124413#1 318210358 318210355 318210354#0 -679901152#1 -45875465 -152839426 -178028204#9 -178028204#9.72 23913525#0 -317233620 61660894 -23913525#0 178028204#9 178028204#9.13"/>
    </vehicle>
    <vehicle id="71" depart="50847.26" type="bike_bicycle">
        <route edges="754032234 23913523#2 23913523#3 140964927#4 147053824#4 147053824#5 140964907#1 140964907#2 140964907#3 -25771472#0 137534616 1066222296#0 1066222296#1 1066221786 1066221582 20553068#0"/>
    </vehicle>
    <vehicle id="72" depart="50854.97" type="bike_bicycle">
        <route edges="23913523#5 -23913523#5 -23913523#4 140964927#4 -147053824#3 -147053824#2 -147053824#1 -11389403#3 55376510#1 55376510#2"/>
    </vehicle>
    <vehicle id="73" depart="50862.68" type="bike_bicycle">
        <route edges="-187114311 23925124#2 -166142951#1 -166142951#0 -1066221582 -1066221787 -1066222296#1 -1066222296#0 -137534616 25771472#0 -140964907#3 -140964907#2 -140964907#1 1072269113 1072269112#0"/>
    </vehicle>
    <vehicle id="74" depart="50870.39" type="bike_bicycle">
        <route edges="-35554226#2 -35554226#1 -147053824#3 -147053824#2 -147053824#1 -11389403#3 -11389403#2 -206312192#1 -238053701 -238053696 -238053694"/>
    </vehicle>
    <vehicle id="75" depart="50878.09" type="bike_bicycle">
        <route edges="148803138#1 148803138#2 45336120#0 -857848265 148803125#0 148803125#1 147053824#2 147053824#3 147053824#4 147053824#5 1072269113 1072269112#0 178028203#1 178028203#2 178028204#1 178028204#4 178028204#9 178028204#9.13 166142947#1 -152839428 679901152#0 72230304#1 461514282#0"/>
    </vehicle>
    <vehicle id="76" depart="50885.80" type="bike_bicycle">
        <route edges="822124413#0 822124413#1 318210358 318210355 318210354#0 -679901152#1 -45875465 -152839426 -178028204#9 -178028204#9.72 23913525#0 -317233620 61660894 -23913525#0 178028204#9 178028204#9.13"/>
    </vehicle>
    <vehicle id="77" depart="50893.51" type="bike_bicycle">
        <route edges="886496552#0 886496552#1 -23919022#0 -149611511#2 -149611511#1 -149611511#0 -23925124#2 -23925124#1 -23925124#0 -24152326#1 -24152326#0 -152839426 -178028204#9"/>
    </vehicle>
    <vehicle id="78" depart="50901.22" type="bike_bicycle">
        <route edges="-187114311 -23925124#1 -23925124#0 -24152326#1 -24152326#0 -152839426 -178028204#9 -178028204#9.72 -178028204#4 -178028204#3 -178028203#2 -178028203#1 -1072269112#0 -1072269113 -147053824#5 -147053824#4 -147053824#3 -147053824#2 -147053824#1 -11389403#3 -11389403#2 206312192#2 206312192#3"/>
    </vehicle>
    <vehicle id="79" depart="50908.92" type="bike_bicycle">
        <route edges="-187114311 23925124#2 -166142951#1 -166142951#0 -1066221582 -1066221787 -1066222296#1 -1066222296#0 -137534616 25771472#0 -140964907#3 -140964907#2 -140964907#1 1072269113 1072269112#0"/>
    </vehicle>
    <vehicle id="80" depart="50916.63" type="bike_bicycle">
        <route edges="822124413#0 822124413#1 318210358 318210355 318210354#0 -679901152#1 -45875465 -152839426 -178028204#9 -178028204#9.72 23913525#0 -317233620 61660894 -23913525#0 178028204#9 178028204#9.13"/>
    </vehicle>
    <vehicle id="81" depart="50924.34" type="bike_bicycle">
        <route edges="822124413#0 822124413#1 318210358 318210355 318210354#0 -679901152#1 -45875465 -152839426 -178028204#9 -178028204#9.72 23913525#0 -317233620 -61660891"/>
    </vehicle>
    <vehicle id="82" depart="50932.05" type="bike_bicycle">
        <route edges="-350626781 148803125#1 147053824#2 147053824#3 147053824#4 147053824#5 1072269113 1072269112#0 178028203#1 178028203#2 178028204#1 178028204#4 178028204#9 178028204#9.13 166142947#1 -152839428 679901152#0 72230304#1 461514282#0 461514282#1"/>
    </vehicle>
    <vehicle id="83" depart="50939.76" type="bike_bicycle">
        <route edges="822124413#0 822124413#1 318210358 318210355 318210354#0 -679901152#1 -45875465 -152839426 -178028204#9 -178028204#9.72 -178028204#4"/>
    </vehicle>
    <vehicle id="84" depart="50947.46" type="bike_bicycle">
        <route edges="822124413#0 822124413#1 318210358 318210355 318210354#0 -679901152#1 -45875465 24152326#0 24152326#1 23925124#0 23925124#1 23925124#2 -166142951#1 -166142951#0 -1066221582 -1066221787 -1066222296#1 -1066222296#0 -137534616 25771472#0 25771472#1 140964910#1 140964910#2"/>
    </vehicle>
    <vehicle id="85" depart="50955.17" type="bike_bicycle">
        <route edges="-23925122#1 23925122#1 23925123#1 -24152326#0 -152839426 -178028204#9 -178028204#9.72 23913525#0 -317233620 -61660891"/>
    </vehicle>
    <vehicle id="86" depart="50962.88" type="bike_bicycle">
        <route edges="19585417#0 19585417#1 19589130#2 19589130#3 310096356#0 310096356#1 310096356#2 20554168 178028206#1 178028206#2 178028204#1 178028204#4 178028204#9 178028204#9.13 166142947#1 -152839428 679901152#0 1145174465#1 886496559#0 886496559#1 886496559#2 886496559#3 886496559#4 20552644#2"/>
    </vehicle>
    <vehicle id="87" depart="50970.59" type="bike_bicycle">
        <route edges="822124413#1 318210358 318210355 318210354#0 -679901152#1 -45875465 -152839426 -20553068#3 581944408"/>
    </vehicle>
    <vehicle id="88" depart="50978.30" type="bike_bicycle">
        <route edges="822124413#0 822124413#1 318210358 318210355 318210354#0 -679901152#1 -45875465 -152839426 -178028204#9 -178028204#9.72 23913525#0 -317233620 61660894 -23913525#0 178028204#9 178028204#9.13"/>
    </vehicle>
    <vehicle id="89" depart="50986.00" type="bike_bicycle">
        <route edges="-187114311 23925124#2 -166142951#1 -166142951#0 -1066221582 -1066221787 -1066222296#1 -1066222296#0 -137534616 25771472#0 -140964907#3 -140964907#2 -140964907#1 1072269113 1072269112#0"/>
    </vehicle>
    <vehicle id="90" depart="50993.71" type="bike_bicycle">
        <route edges="26993480 -55376510#1 -55376510#0 147053824#1 147053824#2 147053824#3 147053824#4 147053824#5 140964907#1 140964907#2 140964907#3 -25771472#0 137534616 1066222296#0 1066222296#1 1066221786 1066221582 166142951#0 166142951#1 149611511#0 149611511#1 603469201"/>
    </vehicle>
    <vehicle id="91" depart="51001.42" type="bike_bicycle">
        <route edges="822124413#0 822124413#1 318210358 318210355 318210354#0 -679901152#1 -45875465 -152839426 -178028204#9 -178028204#9.72 -178028204#4"/>
    </vehicle>
    <vehicle id="92" depart="51009.13" type="bike_bicycle">
        <route edges="-187114311 23925124#2 -166142951#1 -166142951#0 -1066221582 -1066221787 -1066222296#1 -1066222296#0 -137534616 25771472#0 -140964907#3 -140964907#2 -140964907#1 1072269113 1072269112#0"/>
    </vehicle>
    <vehicle id="93" depart="51016.84" type="bike_bicycle">
        <route edges="822124413#0 822124413#1 318210358 318210355 318210354#0 -679901152#1 -45875465 -152839426 -178028204#9 -178028204#9.72 23913525#0 -317233620 -61660891"/>
    </vehicle>
    <vehicle id="94" depart="51024.54" type="bike_bicycle">
        <route edges="-23925122#1 23925122#1 23925123#1 -24152326#0 -152839426 -178028204#9 -178028204#9.72 23913525#0 -317233620 -61660891"/>
    </vehicle>
    <vehicle id="95" depart="51032.25" type="bike_bicycle">
        <route edges="822124413#0 822124413#1 318210358 318210355 318210354#0 -679901152#1 -45875465 -152839426 -20553068#3 581944408"/>
    </vehicle>
    <vehicle id="96" depart="51039.96" type="bike_bicycle">
        <route edges="603469202 -149611511#1 -149611511#0 -166142951#1 -166142951#0 -1066221582 -1066221787 -1066222296#1 -1066222296#0 -137534616 25771472#0 25771472#1 25771472#2 -35554226#3 -35554226#2 -35554226#1 -147053824#3 -147053824#2 -147053824#1 -11389403#3 -11389403#2 -11389403#1 E0"/>
    </vehicle>
    <vehicle id="97" depart="51047.67" type="bike_bicycle">
        <route edges="-187114311 23925124#2 -166142951#1 -166142951#0 -1066221582 -1066221787 -1066222296#1 -1066222296#0 -137534616 25771472#0 -140964907#3 -140964907#2 -140964907#1 1072269113 1072269112#0"/>
    </vehicle>
    <vehicle id="98" depart="51055.38" type="bike_bicycle">
        <route edges="149611511#1 603469201 603469202 -149611511#1 -149611511#0 -166142951#1 -166142951#0 -1066221582 -1066221787 -1066222296#1 -1066222296#0 -137534616 25771472#0 25771472#1 25771472#2 -35554226#3 -35554226#2 -35554226#1 -147053824#3 -147053824#2 -147053824#1 -11389403#3 -11389403#2 206312192#2 206312192#3"/>
    </vehicle>
    <vehicle id="99" depart="51063.08" type="bike_bicycle">
        <route edges="822124413#0 822124413#1 318210358 318210355 318210354#0 -679901152#1 -45875465 -152839426 -20553068#3 581944408"/>
    </vehicle>
    <vehicle id="100" depart="51070.79" type="bike_bicycle">
        <route edges="822124413#0 822124413#1 318210358 318210355 318210354#0 -679901152#1 -45875465 -152839426 -178028204#9 -178028204#9.72 23913525#0 -317233620 61660894 -23913525#0 178028204#9 178028204#9.13"/>
    </vehicle>
    <vehicle id="101" depart="51078.50" type="bike_bicycle">
        <route edges="822124413#0 822124413#1 318210358 318210355 318210354#0 -679901152#1 -45875465 -152839426 -178028204#9 -178028204#9.72 23913525#0 -317233620 61660894 -23913525#0 178028204#9 178028204#9.13"/>
    </vehicle>
    <vehicle id="102" depart="51086.21" type="bike_bicycle">
        <route edges="822124413#0 822124413#1 318210358 318210355 318210354#0 -679901152#1 -45875465 -152839426 -178028204#9 -178028204#9.72 -178028204#4"/>
    </vehicle>
    <vehicle id="103" depart="51093.91" type="bike_bicycle">
        <route edges="809228515 140964915#2 25771472#0 25771472#1 25771472#2 -35554226#3 -35554226#2 -35554226#1 -147053824#3 -147053824#2 -147053824#1 -11389403#3 -11389403#2 -11389403#1 E0"/>
    </vehicle>
    <vehicle id="104" depart="51101.62" type="bike_bicycle">
        <route edges="-187114311 23925124#2 -166142951#1 -166142951#0 -1066221582 -1066221787 -1066222296#1 -1066222296#0 -137534616 25771472#0 -140964907#3 -140964907#2 -140964907#1 1072269113 1072269112#0"/>
    </vehicle>
    <vehicle id="105" depart="51109.33" type="bike_bicycle">
        <route edges="-495593644#1 -495593644#0 310109409#2 140964910#3 147053824#5 1072269113 1072269112#0 178028203#1 178028203#2 149611534#0"/>
    </vehicle>
    <vehicle id="106" depart="51117.04" type="bike_bicycle">
        <route edges="822124413#0 822124413#1 318210358 318210355 318210354#0 -679901152#1 -45875465 -152839426 -178028204#9 -178028204#9.72 23913525#0 -317233620 61660894 -23913525#0 178028204#9 178028204#9.13"/>
    </vehicle>
    <vehicle id="107" depart="51124.75" type="bike_bicycle">
        <route edges="822124413#0 822124413#1 318210358 318210355 318210354#0 -679901152#1 -45875465 -152839426 -178028204#9 -178028204#9.72 23913525#0 -317233620 -61660891"/>
    </vehicle>
    <vehicle id="108" depart="51132.45" type="bike_bicycle">