<?xml version="1.0" encoding="UTF-8"?>

<!-- generated on 2023-06-09 11:25:25.356299 by routeSampler.py v1_17_0+0877-4d6f3a05462
<configuration>
    <route-files value="osm.passenger.rou.xml"/>
    <turn-ratio-files value="turn_ratio.xml"/>
    <edgedata-files value="edge_data_cars.xml"/>
    <turn-ratio-attribute value="ratio"/>
    <output-file value="samplertrips.rou.xml"/>
    <attributes value="departLane=&quot;best&quot;"/>
    <mismatch-output value="mismatch.xml"/>
</configuration>
-->

<routes xmlns:xsi="http://www.w3.org/2001/XMLSchema-instance" xsi:noNamespaceSchemaLocation="http://sumo.dlr.de/xsd/routes_file.xsd">
<!-- begin="50300.0" end="54100.0" -->
    <vehicle id="0" depart="50300.00" departLane="best">
        <route edges="140964927#3 140964927#4 147053824#4 147053824#5 1072269113 1072269112#0 178028203#1 178028203#2 178028204#1 178028204#4 178028204#9 166142947#1 -152839428 679901152#0 72230304#1 461514282#0 461514282#1"/>
    </vehicle>
    <vehicle id="1" depart="50301.44" departLane="best">
        <route edges="-25771472#1 -140964907#3 -140964907#2 -140964907#1 1072269113 1072269112#0 178028203#1 178028203#2 178028204#1 -23788323"/>
    </vehicle>
    <vehicle id="2" depart="50302.88" departLane="best">
        <route edges="-35554226#2 -35554226#1 147053824#4 147053824#5 1072269113 1072269112#0 178028203#1 178028203#2 178028204#1 178028204#4 178028204#9 166142947#1 -152839428 679901152#0 40191607#2"/>
    </vehicle>
    <vehicle id="3" depart="50304.32" departLane="best">
        <route edges="-178028204#4 -178028204#3 -178028203#2 -178028203#1 -1072269112#0 -19589130#4 -19589130#3 -23913523#5"/>
    </vehicle>
    <vehicle id="4" depart="50305.76" departLane="best">
        <route edges="19585417#0 140964927#2 140964927#3 140964927#4 147053824#4 147053824#5 1072269113 1072269112#0 20554351 20554168"/>
    </vehicle>
    <vehicle id="5" depart="50307.20" departLane="best">
        <route edges="11389403#2 11389403#3 147053824#1"/>
    </vehicle>
    <vehicle id="6" depart="50308.64" departLane="best">
        <route edges="-149611526#0 -166142951#1 -166142951#0 -1066221582 -1066221787 -1066222296#1 -1066222296#0 -137534616 25771472#0 -140964907#3 -140964907#2 -140964907#1 -147053824#5 -147053824#4 -147053824#3 -147053824#2 -147053824#1 -11389403#3 -11389403#2 -11389403#1 E0"/>
    </vehicle>
    <vehicle id="7" depart="50310.08" departLane="best">
        <route edges="-178028204#4 -178028204#3 -178028203#2 -178028203#1 -1072269112#0 -1072269113 -147053824#5 -147053824#4 -147053824#3 -147053824#2 -147053824#1 -11389403#3 -11389403#2 -11389403#1 E0"/>
    </vehicle>
    <vehicle id="8" depart="50311.52" departLane="best">
        <route edges="148803147#2 148803147#3 1093549448#2 1093549489#1 1093549550#1 146511475#0 147053824#3 -140964927#4 -140964927#3 -140964927#2 19585417#1"/>
    </vehicle>
    <vehicle id="9" depart="50312.96" departLane="best">
        <route edges="1093549489#1 1093549550#1 146511475#0 147053824#3 147053824#4 -140964910#3 -140964910#2 -140964910#1 -25771472#1"/>
    </vehicle>
    <vehicle id="10" depart="50314.40" departLane="best">
        <route edges="318210357#0 -679901152#1 -45875465 -152839426 -178028204#9 -178028204#4 -23788323"/>
    </vehicle>
    <vehicle id="11" depart="50315.85" departLane="best">
        <route edges="40191607#2 -23913526#0 187123053#5 187123053#6 -152839426 -178028204#9 -140964924"/>
    </vehicle>
    <vehicle id="12" depart="50317.29" departLane="best">
        <route edges="-23925122#1 23925119#3 40191606 414563781 318210357#0 -679901152#1 -45875465 -152839426 -178028204#9 -178028204#4 -23788323"/>
    </vehicle>
    <vehicle id="13" depart="50318.73" departLane="best">
        <route edges="-140964907#3 -140964907#2 -140964907#1 -147053824#5 -147053824#4 -147053824#3 -147053824#2 -147053824#1 -11389403#3 -11389403#2 -11389403#1 E0"/>
    </vehicle>
    <vehicle id="14" depart="50320.17" departLane="best">
        <route edges="147053824#3 35554226#1 35554226#2 35554226#3 35554229#0 35554229#1 35215636 -1093549448#2 -148803147#3 -148803147#2 -148803147#1"/>
    </vehicle>
    <vehicle id="15" depart="50321.61" departLane="best">
        <route edges="1093549448#2 1093549489#1 1093549550#1 146511475#0 147053824#3 147053824#4 147053824#5 1072269113 1072269112#0 178028203#1 178028203#2 178028204#1 178028204#4 178028204#9 166142947#1"/>
    </vehicle>
    <vehicle id="16" depart="50323.05" departLane="best">
        <route edges="140964905#2 140964905#5 187123053#3 187123053#4 187123053#5 187123053#6 -152839426 -178028204#9 23913525#0"/>
    </vehicle>
    <vehicle id="17" depart="50324.49" departLane="best">
        <route edges="147053824#1 147053824#2 147053824#3 147053824#4 147053824#5 1072269113 1072269112#0 20554351 20554168"/>
    </vehicle>
    <vehicle id="18" depart="50325.93" departLane="best">
        <route edges="148803147#1 148803147#2 148803147#3 1093549448#2 1093549489#1 1093549550#1 146511475#0 147053824#3 147053824#4 147053824#5 1072269113 1072269112#0"/>
    </vehicle>
    <vehicle id="19" depart="50327.37" departLane="best">
        <route edges="318210355 318210354#0 -679901152#1 -45875465 -152839426 -178028204#9 -178028204#4 -178028204#3 -178028203#2 -178028203#1 20554351 20554168"/>
    </vehicle>
    <vehicle id="20" depart="50328.81" departLane="best">
        <route edges="187123053#6 -152839426 -178028204#9 -178028204#4 -178028204#3 -178028203#2 -178028203#1 -1072269112#0 -1072269113 -147053824#5 -140964910#3"/>
    </vehicle>
    <vehicle id="21" depart="50330.25" departLane="best">
        <route edges="19589130#2 19589130#3 19589130#4 -1072269113 -147053824#5 -147053824#4 -147053824#3 -147053824#2"/>
    </vehicle>
    <vehicle id="22" depart="50331.69" departLane="best">
        <route edges="153021549#1 -149611526#1 -149611526#0 -166142951#1 -166142951#0 -1066221582 -1066221787 -1066222296#1 -1066222296#0 -137534616 25771472#0 -140964907#3 -140964907#2 -140964907#1 -147053824#5 -147053824#4 -147053824#3 -147053824#2 -147053824#1"/>
    </vehicle>
    <vehicle id="23" depart="50333.13" departLane="best">
        <route edges="35554229#1 35215636 1093549489#1 1093549550#1 146511475#0 147053824#3 147053824#4 147053824#5 1072269113 1072269112#0 178028203#1 178028203#2 178028204#1 178028204#4 178028204#9"/>
    </vehicle>
    <vehicle id="24" depart="50334.57" departLane="best">
        <route edges="19589130#3 19589130#4 1072269112#0 178028203#1 178028203#2 178028204#1 178028204#4 178028204#9 166142947#1 -152839428 679901152#0 72230304#1 461514282#0"/>
    </vehicle>
    <vehicle id="25" depart="50336.01" departLane="best">
        <route edges="-147053824#3 -146511475#0 -1093549550#1 -1093549550#0 20553444 -35554229#1 -35554229#0 -25771472#2 -25771472#1 -25771472#0 137534616 1066222296#0 1066222296#1 1066221786 1066221582 166142951#0 166142951#1 149611526#0 149611526#1 1102336903#0 40191606 414563781 318210357#0 40191607#2 40191607#3"/>
    </vehicle>
    <vehicle id="26" depart="50337.45" departLane="best">
        <route edges="-11391856#2 147053824#1 147053824#2 147053824#3 147053824#4 147053824#5 1072269113 1072269112#0 20554351"/>
    </vehicle>
    <vehicle id="27" depart="50338.89" departLane="best">
        <route edges="19589130#4 1072269112#0 178028203#1 178028203#2 178028204#1 178028204#4"/>
    </vehicle>
    <vehicle id="28" depart="50340.33" departLane="best">
        <route edges="1093549550#1 146511475#0 147053824#3 147053824#4 147053824#5 1072269113 1072269112#0 178028203#1 178028203#2 178028204#1 -23788323"/>
    </vehicle>
    <vehicle id="29" depart="50341.77" departLane="best">
        <route edges="19589130#3 19589130#4 1072269112#0 140964915#0 140964915#1 140964915#2 137534616 1066222296#0 1066222296#1 1066221786 1066221582 166142951#0 166142951#1 149611526#0 149611526#1 1102336903#0 -23925119#3 -23925119#1"/>
    </vehicle>
    <vehicle id="30" depart="50343.21" departLane="best">
        <route edges="-23913523#3 -23913523#2 -23913523#0 -11391856#2 147053824#1 147053824#2 147053824#3 147053824#4 147053824#5 1072269113 1072269112#0 178028203#1 178028203#2 149611534#0 149611534#1"/>
    </vehicle>
    <vehicle id="31" depart="50344.66" departLane="best">
        <route edges="140964915#2 25771472#0 -140964907#3 -140964907#2 -140964907#1 -147053824#5 -147053824#4 -147053824#3 -147053824#2 -147053824#1 11391856#2 11391856#3"/>
    </vehicle>
    <vehicle id="32" depart="50346.10" departLane="best">
        <route edges="-23913525#1 -23913525#0 -178028204#4 -178028204#3 -178028203#2 -178028203#1 -1072269112#0 -1072269113 -147053824#5 -147053824#4 -147053824#3"/>
    </vehicle>
    <vehicle id="33" depart="50347.54" departLane="best">
        <route edges="153021549#0 153021549#1 1102336903#0 40191606 414563781 318210357#0 -679901152#1 -45875465 -152839426 -20553068#3"/>
    </vehicle>
    <vehicle id="34" depart="50348.98" departLane="best">
        <route edges="19585417#1 19589130#2 19589130#3 19589130#4 1072269112#0 178028203#1 178028203#2 178028204#1"/>
    </vehicle>
    <vehicle id="35" depart="50350.42" departLane="best">
        <route edges="-149611534#1 -149611534#0 178028204#1 178028204#4 23913525#0 23913525#1 -140964905#8 187123053#3"/>
    </vehicle>
    <vehicle id="36" depart="50351.86" departLane="best">
        <route edges="679901152#0 40191607#2 -23913526#0 187123053#5 187123053#6 -152839426 -178028204#9 -178028204#4 -178028204#3 -178028203#2 -178028203#1 -1072269112#0 -1072269113 -147053824#5 -147053824#4 -147053824#3 -147053824#2 -147053824#1 -11389403#3 -11389403#2 -11389403#1 E0"/>
    </vehicle>
    <vehicle id="37" depart="50353.30" departLane="best">
        <route edges="11389403#2 11389403#3 147053824#1 147053824#2 147053824#3 -140964927#4 -140964927#3 -140964927#2 19585417#1"/>
    </vehicle>
    <vehicle id="38" depart="50354.74" departLane="best">
        <route edges="23913523#5 19589130#3 19589130#4 1072269112#0 178028203#1 178028203#2 178028204#1 -23788323"/>
    </vehicle>
    <vehicle id="39" depart="50356.18" departLane="best">
        <route edges="147053824#4 147053824#5 1072269113 1072269112#0 178028203#1 178028203#2"/>
    </vehicle>
    <vehicle id="40" depart="50357.62" departLane="best">
        <route edges="-23913525#1 -23913525#0 -178028204#4 -178028204#3 -178028203#2 -178028203#1 -1072269112#0 -1072269113 -147053824#5 -147053824#4 -147053824#3 -147053824#2"/>
    </vehicle>
    <vehicle id="41" depart="50359.06" departLane="best">
        <route edges="-147053824#5 -147053824#4 -147053824#3 -147053824#2"/>
    </vehicle>
    <vehicle id="42" depart="50360.50" departLane="best">
        <route edges="24152326#0 24152326#1 23925124#0 23925124#1 23925124#2 -166142951#1 -166142951#0 -1066221582 -1066221787 -1066222296#1 -1066222296#0 -137534616 25771472#0 -140964907#3 -140964907#2 -140964907#1 -147053824#5 -147053824#4 -147053824#3 -147053824#2"/>
    </vehicle>
    <vehicle id="43" depart="50361.94" departLane="best">
        <route edges="178028204#4 -140964924 -1066222296#1 -1066222296#0 -137534616 25771472#0 25771472#1 25771472#2 35554229#0 35554229#1 35215636 -1093549448#2 -148803147#3 -148803147#2 -148803147#1"/>
    </vehicle>
    <vehicle id="44" depart="50363.38" departLane="best">
        <route edges="11389403#2 11389403#3 147053824#1"/>
    </vehicle>
    <vehicle id="45" depart="50364.82" departLane="best">
        <route edges="24152326#0 24152326#1 23925124#0 23925124#1 23925124#2 -166142951#1 -166142951#0 -1066221582 -1066221787 -1066222296#1 -1066222296#0 -137534616 25771472#0 -140964907#3 -140964907#2 -140964907#1 -147053824#5 -147053824#4 -147053824#3 -147053824#2"/>
    </vehicle>
    <vehicle id="46" depart="50366.26" departLane="best">
        <route edges="52036180#5 -679901152#1 -45875465 24152326#0 24152326#1 23925124#0 23925124#1 23925124#2 149611526#0"/>
    </vehicle>
    <vehicle id="47" depart="50367.70" departLane="best">
        <route edges="20553068#2 20553068#3 166142947#1 -152839428 679901152#0 72230304#1 461514282#0 461514282#1"/>
    </vehicle>
    <vehicle id="48" depart="50369.14" departLane="best">
        <route edges="153021549#0 153021549#1 1102336903#0 40191606 414563781 318210357#0 -679901152#1 -45875465 -152839426 -178028204#9 -178028204#4 -178028204#3 -178028203#2 -178028203#1 140964915#0 140964915#1 140964915#2"/>
    </vehicle>
    <vehicle id="49" depart="50370.58" departLane="best">
        <route edges="23788323 178028204#4 23913525#0 23913525#1 -140964905#8"/>
    </vehicle>
    <vehicle id="50" depart="50372.02" departLane="best">
        <route edges="140964910#2 140964910#3 147053824#5 1072269113 1072269112#0 178028203#1 178028203#2 178028204#1 178028204#4 178028204#9 166142947#1 -152839428 679901152#0 40191607#2 -23913526#0"/>
    </vehicle>
    <vehicle id="51" depart="50373.46" departLane="best">
        <route edges="23913523#5 19589130#3 19589130#4 1072269112#0 178028203#1 178028203#2 178028204#1 178028204#4 23913525#0 23913525#1 -140964905#8"/>
    </vehicle>
    <vehicle id="52" depart="50374.91" departLane="best">
        <route edges="147053824#3 147053824#4 147053824#5 1072269113 1072269112#0 178028203#1 178028203#2 178028204#1 178028204#4 178028204#9 166142947#1 -152839428 679901152#0 72230304#1"/>
    </vehicle>
    <vehicle id="53" depart="50376.35" departLane="best">
        <route edges="148803147#0 148803147#1 148803147#2 148803147#3 1093549448#2 1093549489#1 1093549550#1 146511475#0 147053824#3 147053824#4 147053824#5 140964907#1"/>
    </vehicle>
    <vehicle id="54" depart="50377.79" departLane="best">
        <route edges="-E0 11389403#1 11389403#2 11389403#3 147053824#1"/>
    </vehicle>
    <vehicle id="55" depart="50379.23" departLane="best">
        <route edges="-23913526#0 187123053#5 187123053#6 -152839426 -178028204#9 -178028204#4 -178028204#3 -178028203#2 -178028203#1 140964915#0 140964915#1"/>
    </vehicle>
    <vehicle id="56" depart="50380.67" departLane="best">
        <route edges="40191606 414563781 318210357#0 -679901152#1 -45875465 -152839426 -178028204#9 -178028204#4 -178028204#3 149611534#0 149611534#1"/>
    </vehicle>
    <vehicle id="57" depart="50382.11" departLane="best">
        <route edges="178028203#2 178028204#1 -23788323 -1066222296#0 -137534616 25771472#0 -140964907#3 -140964907#2 -140964907#1 -147053824#5 -147053824#4 -147053824#3 -147053824#2"/>
    </vehicle>
    <vehicle id="58" depart="50383.55" departLane="best">
        <route edges="-23913525#0 -178028204#4 -178028204#3 -178028203#2 -178028203#1 -1072269112#0 -1072269113 -147053824#5 -147053824#4 35554226#1 35554226#2"/>
    </vehicle>
    <vehicle id="59" depart="50384.99" departLane="best">
        <route edges="140964910#3 147053824#5 1072269113 1072269112#0 178028203#1 178028203#2 178028204#1 178028204#4"/>
    </vehicle>
    <vehicle id="60" depart="50386.43" departLane="best">
        <route edges="148803147#0 148803147#1 148803147#2 148803147#3 1093549448#2 1093549489#1 1093549550#1 146511475#0 147053824#3 147053824#4 147053824#5 1072269113 -19589130#4 -19589130#3"/>
    </vehicle>
    <vehicle id="61" depart="50387.87" departLane="best">
        <route edges="40191607#2 -23913526#0 187123053#5 187123053#6 -152839426 -178028204#9 -178028204#4 -178028204#3 -178028203#2 -178028203#1 -1072269112#0 -1072269113 -147053824#5 -147053824#4 -140964927#4 -140964927#3"/>
    </vehicle>
    <vehicle id="62" depart="50389.31" departLane="best">
        <route edges="23925124#1 23925124#2 -166142951#1 -166142951#0 -1066221582 -1066221787 -1066222296#1 -1066222296#0 -137534616 25771472#0 -140964907#3 -140964907#2 -140964907#1 -147053824#5 -147053824#4 -147053824#3 -147053824#2 -147053824#1"/>
    </vehicle>
    <vehicle id="63" depart="50390.75" departLane="best">
        <route edges="23913523#3 140964927#4 147053824#4 147053824#5 1072269113 1072269112#0 178028203#1 178028203#2 178028204#1 178028204#4 178028204#9 166142947#1 24152326#0 24152326#1 23925124#0 23925119#1"/>
    </vehicle>
    <vehicle id="64" depart="50392.19" departLane="best">
        <route edges="187123053#3 187123053#4 187123053#5 187123053#6 -152839426 -178028204#9 -178028204#4 -178028204#3 -178028203#2 -178028203#1 -1072269112#0 -1072269113 -147053824#5 -147053824#4 -147053824#3 -147053824#2 -147053824#1 11391856#2 11391856#3"/>
    </vehicle>
    <vehicle id="65" depart="50393.63" departLane="best">
        <route edges="11389403#2 11389403#3 147053824#1"/>
    </vehicle>
    <vehicle id="66" depart="50395.07" departLane="best">
        <route edges="-23913525#0 -178028204#4 -178028204#3 -178028203#2 -178028203#1 -1072269112#0 -1072269113 -147053824#5 -147053824#4 -147053824#3 -147053824#2"/>
    </vehicle>
    <vehicle id="67" depart="50396.51" departLane="best">
        <route edges="-25771472#1 -140964907#3 -140964907#2 -140964907#1 1072269113 1072269112#0 20554351"/>
    </vehicle>
    <vehicle id="68" depart="50397.95" departLane="best">
        <route edges="187123053#5 187123053#6 -152839426 -178028204#9 -178028204#4 -178028204#3 -178028203#2 -178028203#1 -1072269112#0 -1072269113 -147053824#5 -140964910#3 -140964910#2"/>
    </vehicle>
    <vehicle id="69" depart="50399.39" departLane="best">
        <route edges="35554229#0 35554229#1 35215636 1093549489#1 1093549550#1 146511475#0 147053824#3 -140964927#4 -140964927#3 -140964927#2 19585417#1"/>
    </vehicle>
    <vehicle id="70" depart="50400.83" departLane="best">
        <route edges="1093549489#1 1093549550#1 146511475#0 147053824#3 147053824#4 147053824#5 1072269113 1072269112#0"/>
    </vehicle>
    <vehicle id="71" depart="50402.27" departLane="best">
        <route edges="-11391856#3 -11391856#2 147053824#1 147053824#2 -146511475#0 -1093549550#1 -1093549550#0 20553444 -35554229#1 -35554229#0"/>
    </vehicle>
    <vehicle id="72" depart="50403.71" departLane="best">
        <route edges="1093549448#2 1093549489#1 1093549550#1 146511475#0 147053824#3 147053824#4 147053824#5 1072269113 1072269112#0 178028203#1 178028203#2 178028204#1 178028204#4"/>
    </vehicle>
    <vehicle id="73" depart="50405.16" departLane="best">
        <route edges="140964927#3 140964927#4 147053824#4 147053824#5 1072269113 1072269112#0 178028203#1 178028203#2 178028204#1 178028204#4 178028204#9 -20553068#3 -20553068#2 -20553068#1 -20553068#0"/>
    </vehicle>
    <vehicle id="74" depart="50406.60" departLane="best">
        <route edges="-149611534#1 -149611534#0 178028204#1 178028204#4 178028204#9 166142947#1 -152839428 679901152#0 40191607#2 40191607#3 40191607#4"/>
    </vehicle>
    <vehicle id="75" depart="50408.04" departLane="best">
        <route edges="40191607#3 140964905#2 140964905#5 187123053#3 187123053#4 187123053#5 187123053#6 -152839426 -178028204#9 -178028204#4 -178028204#3 -178028203#2 -178028203#1 -1072269112#0 -1072269113 -147053824#5 -147053824#4 -140964927#4"/>
    </vehicle>
    <vehicle id="76" depart="50409.48" departLane="best">
        <route edges="19589130#4 -1072269113 -147053824#5 -147053824#4 -147053824#3 -147053824#2 -147053824#1 -11389403#3"/>
    </vehicle>
    <vehicle id="77" depart="50410.92" departLane="best">
        <route edges="148803147#2 148803147#3 1093549448#2 1093549489#1 1093549550#1 146511475#0 147053824#3 147053824#4 147053824#5 1072269113 1072269112#0 178028203#1 178028203#2 178028204#1"/>
    </vehicle>
    <vehicle id="78" depart="50412.36" departLane="best">
        <route edges="-25771472#1 -140964907#3 -140964907#2 -140964907#1 1072269113 1072269112#0 20554351 20554168 178028206#1 178028206#2"/>
    </vehicle>
    <vehicle id="79" depart="50413.80" departLane="best">
        <route edges="23913523#5 19589130#3 19589130#4 1072269112#0 178028203#1 178028203#2 178028204#1 178028204#4 -140964924"/>
    </vehicle>
    <vehicle id="80" depart="50415.24" departLane="best">
        <route edges="-1066221582 -1066221787 -1066222296#1 -1066222296#0 -137534616 25771472#0 -140964907#3 -140964907#2 -140964907#1 -147053824#5 -147053824#4 -147053824#3 -147053824#2 -147053824#1 -11389403#3 -11389403#2"/>
    </vehicle>
    <vehicle id="81" depart="50416.68" departLane="best">
        <route edges="-23913525#0 178028204#9 166142947#1 -152839428 679901152#0 40191607#2 40191607#3 40191607#4 40191607#5"/>
    </vehicle>
    <vehicle id="82" depart="50418.12" departLane="best">
        <route edges="-23913523#4 140964927#4 147053824#4 147053824#5 1072269113 1072269112#0 178028203#1 178028203#2 178028204#1"/>
    </vehicle>
    <vehicle id="83" depart="50419.56" departLane="best">
        <route edges="35554229#0 35554229#1 35215636 1093549489#1 1093549550#1 146511475#0 147053824#3 147053824#4 147053824#5 1072269113 1072269112#0 178028203#1 178028203#2 178028204#1 178028204#4 178028204#9 166142947#1 -187123053#6 -187123053#5 23913526#0"/>
    </vehicle>
    <vehicle id="84" depart="50421.00" departLane="best">
        <route edges="-23913523#4 140964927#4 147053824#4 147053824#5 1072269113 1072269112#0 140964915#0 140964915#1 140964915#2"/>
    </vehicle>
    <vehicle id="85" depart="50422.44" departLane="best">
        <route edges="-E0 11389403#1 11389403#2 11389403#3 147053824#1"/>
    </vehicle>
    <vehicle id="86" depart="50423.88" departLane="best">
        <route edges="35554229#1 35215636 1093549489#1 1093549550#1 146511475#0 147053824#3 147053824#4 147053824#5 1072269113 1072269112#0 178028203#1 178028203#2 178028204#1 178028204#4"/>
    </vehicle>
    <vehicle id="87" depart="50425.32" departLane="best">
        <route edges="1102336903#0 40191606 414563781 318210357#0 -679901152#1 -45875465 -152839426 -178028204#9 -178028204#4 -178028204#3 -178028203#2 -178028203#1 -1072269112#0 -1072269113 -147053824#5 -147053824#4 -140964927#4 23913523#4 23913523#5"/>
    </vehicle>
    <vehicle id="88" depart="50426.76" departLane="best">
        <route edges="147053824#5 140964907#1 140964907#2 140964907#3 25771472#1 25771472#2 35554229#0 35554229#1 35215636 -1093549448#2"/>
    </vehicle>
    <vehicle id="89" depart="50428.20" departLane="best">
        <route edges="-187123053#4 -187123053#3 140964905#8 -23913525#1 -23913525#0 -178028204#4 -178028204#3 -178028203#2 -178028203#1 -1072269112#0 -1072269113 -147053824#5 -147053824#4 -147053824#3 -147053824#2 -147053824#1 -11389403#3 -11389403#2 -11389403#1 E0"/>
    </vehicle>
    <vehicle id="90" depart="50429.64" departLane="best">
        <route edges="-23925122#1 -23925119#1 23925124#1 23925124#2 -166142951#1 -166142951#0 -1066221582 -1066221787 -1066222296#1 -1066222296#0 -137534616 25771472#0 -140964907#3 -140964907#2 -140964907#1 1072269113 1072269112#0 178028203#1"/>
    </vehicle>
    <vehicle id="91" depart="50431.08" departLane="best">
        <route edges="52036180#5 -679901152#1 -45875465 -152839426 -178028204#9 -178028204#4 -178028204#3 -178028203#2 -178028203#1 -1072269112#0 -1072269113 -147053824#5 -147053824#4 -147053824#3 -147053824#2"/>
    </vehicle>
    <vehicle id="92" depart="50432.52" departLane="best">
        <route edges="-23925122#1 -23925119#1 23925124#1 23925124#2 -166142951#1 -166142951#0 -1066221582 -1066221787 -1066222296#1 -1066222296#0 -137534616 25771472#0 -140964907#3 -140964907#2 -140964907#1 1072269113 1072269112#0 178028203#1"/>
    </vehicle>
    <vehicle id="93" depart="50433.97" departLane="best">
        <route edges="20553068#0 20553068#1 20553068#2 20553068#3 -178028204#9 -178028204#4 -178028204#3 -178028203#2 -178028203#1 -1072269112#0 -19589130#4 -19589130#3"/>
    </vehicle>
    <vehicle id="94" depart="50435.41" departLane="best">
        <route edges="318210355 318210354#0 -679901152#1 -45875465 -152839426 -178028204#9 -178028204#4 -178028204#3 149611534#0 149611534#1"/>
    </vehicle>
    <vehicle id="95" depart="50436.85" departLane="best">
        <route edges="146511475#0 147053824#3 147053824#4 147053824#5 1072269113 1072269112#0 178028203#1 178028203#2 178028204#1 178028204#4 178028204#9 166142947#1 -152839428"/>
    </vehicle>
    <vehicle id="96" depart="50438.29" departLane="best">
        <route edges="-23925122#1 -23925119#1 23925124#1 23925124#2 -166142951#1 -166142951#0 -1066221582 -1066221787 -1066222296#1 -1066222296#0 -137534616 25771472#0 -140964907#3 -140964907#2 -140964907#1 -147053824#5 -147053824#4 35554226#1"/>
    </vehicle>
    <vehicle id="97" depart="50439.73" departLane="best">
        <route edges="153021549#0 153021549#1 1102336903#0 40191606 414563781 318210357#0 -679901152#1 -45875465 -152839426 -20553068#3"/>
    </vehicle>
    <vehicle id="98" depart="50441.17" departLane="best">
        <route edges="-25771472#1 -140964907#3 -140964907#2 -140964907#1 -147053824#5 -147053824#4 -147053824#3 -147053824#2 -147053824#1"/>
    </vehicle>
    <vehicle id="99" depart="50442.61" departLane="best">
        <route edges="137534616 1066222296#0 1066222296#1 1066221786 1066221582 20553068#0 20553068#1 20553068#2 20553068#3 166142947#1 -152839428"/>
    </vehicle>
    <vehicle id="100" depart="50444.05" departLane="best">
        <route edges="-187123053#3 140964905#8 -23913525#1 -23913525#0 -178028204#4 -178028204#3"/>
    </vehicle>
    <vehicle id="101" depart="50445.49" departLane="best">
        <route edges="153021549#1 -149611526#1 -149611526#0 -166142951#1 -166142951#0 -1066221582 -1066221787 -1066222296#1 -1066222296#0 -137534616 25771472#0 -140964907#3 -140964907#2 -140964907#1 1072269113 -19589130#4 -19589130#3 -19589130#2 -19585417#1"/>
    </vehicle>
    <vehicle id="102" depart="50446.93" departLane="best">
        <route edges="23788323 -178028204#3 -178028203#2 -178028203#1 -1072269112#0 -1072269113 -147053824#5 -147053824#4 -147053824#3 -147053824#2 -147053824#1 -11389403#3 -11389403#2"/>
    </vehicle>
    <vehicle id="103" depart="50448.37" departLane="best">
        <route edges="147053824#3 35554226#1 35554226#2 35554226#3 35554229#0 35554229#1 35215636 -1093549448#2 -148803147#3 -148803147#2 -148803147#1"/>
    </vehicle>
    <vehicle id="104" depart="50449.81" departLane="best">
        <route edges="318210354#0 -679901152#1 -45875465 -152839426 -178028204#9 -178028204#4 -178028204#3 -178028203#2 -178028203#1 -1072269112#0 -1072269113 -147053824#5 -147053824#4 -147053824#3 -147053824#2 -147053824#1 -11389403#3 -11389403#2 -11389403#1 E0"/>
    </vehicle>
    <vehicle id="105" depart="50451.25" departLane="best">
        <route edges="-35554226#3 -35554226#2 -35554226#1 147053824#4 147053824#5 1072269113 1072269112#0 178028203#1 178028203#2 178028204#1 -23788323"/>
    </vehicle>
    <vehicle id="106" depart="50452.69" departLane="best">
        <route edges="-152839426 -178028204#9 -178028204#4 -178028204#3 -178028203#2 -178028203#1 -1072269112#0 -1072269113 -147053824#5 -147053824#4 35554226#1 35554226#2 35554226#3"/>
    </vehicle>
    <vehicle id="107" depart="50454.13" departLane="best">
        <route edges="153021549#0 153021549#1 1102336903#0 40191606 414563781 318210357#0 -679901152#1 -45875465 -152839426 -178028204#9 -178028204#4 -178028204#3 -178028203#2 -178028203#1 20554351"/>
    </vehicle>
    <vehicle id="108" depart="50455.57" departLane="best">
        <route edges="-178028204#3 -178028203#2 -178028203#1 -1072269112#0 -1072269113 140964907#1 140964907#2 140964907#3"/>
    </vehicle>
    <vehicle id="109" depart="50457.01" departLane="best">
        <route edges="11389403#2 11389403#3 147053824#1 147053824#2 -146511475#0 -1093549550#1 -1093549550#0"/>
    </vehicle>
    <vehicle id="110" depart="50458.45" departLane="best">
        <route edges="-35554229#1 -35554229#0 -35554226#3 -35554226#2 -35554226#1 147053824#4 147053824#5"/>
    </vehicle>
    <vehicle id="111" depart="50459.89" departLane="best">
        <route edges="-140964907#1 1072269113 1072269112#0 178028203#1 178028203#2 178028204#1"/>
    </vehicle>
    <vehicle id="112" depart="50461.33" departLane="best">
        <route edges="153021549#0 153021549#1 -149611526#1 -149611526#0 -166142951#1 -166142951#0 -1066221582 -1066221787 -1066222296#1 -1066222296#0 -137534616 25771472#0 -140964907#3 -140964907#2 -140964907#1 -147053824#5 -147053824#4 -147053824#3"/>
    </vehicle>
    <vehicle id="113" depart="50462.77" departLane="best">
        <route edges="318210355 318210354#0 -679901152#1 -45875465 -152839426 -178028204#9 -178028204#4 -178028204#3 -178028203#2 -178028203#1 -1072269112#0 -19589130#4 -19589130#3 -19589130#2"/>
    </vehicle>
    <vehicle id="114" depart="50464.22" departLane="best">
        <route edges="140964905#8 -23913525#1 -23913525#0 -178028204#4 -178028204#3 -178028203#2 -178028203#1 -1072269112#0 -1072269113 -147053824#5 -147053824#4 -147053824#3 -147053824#2"/>
    </vehicle>
    <vehicle id="115" depart="50465.66" departLane="best">
        <route edges="-178028204#9 23913525#0 23913525#1 -140964905#8 -140964905#5 -140964905#2 40191607#4 40191607#5 40191607#6"/>
    </vehicle>
    <vehicle id="116" depart="50467.10" departLane="best">
        <route edges="822124413#0 822124413#1 318210358 318210355 318210354#0 -679901152#1 -45875465 -152839426 -178028204#9 -178028204#4 -178028204#3 149611534#0"/>
    </vehicle>
    <vehicle id="117" depart="50468.54" departLane="best">
        <route edges="35215636 1093549489#1 1093549550#1 146511475#0 -147053824#2 -147053824#1 -11389403#3 -11389403#2 -11389403#1 E0"/>
    </vehicle>
    <vehicle id="118" depart="50469.98" departLane="best">
        <route edges="1102336903#0 40191606 414563781 318210357#0 -679901152#1 -45875465 -152839426 -178028204#9 -178028204#4"/>
    </vehicle>
    <vehicle id="119" depart="50471.42" departLane="best">
        <route edges="318210355 318210354#0 -679901152#1 -45875465 -152839426 -178028204#9 -178028204#4 -178028204#3 -178028203#2 -178028203#1 -1072269112#0 -19589130#4 -19589130#3 -19589130#2"/>
    </vehicle>
    <vehicle id="120" depart="50472.86" departLane="best">
        <route edges="23913523#0 23913523#2 23913523#3 140964927#4 147053824#4 147053824#5"/>
    </vehicle>