<?xml version="1.0" encoding="UTF-8"?>

<!-- generated on 2023-07-06 19:50:41.205576 by routeSampler.py v1_18_0+0129-c59b8b9275c
<configuration>
    <route-files value="osm.passenger.rou.xml"/>
    <turn-ratio-files value="turn_ratio.xml"/>
    <edgedata-files value="edge_data_cars.xml"/>
    <turn-ratio-attribute value="ratio"/>
    <output-file value="samplertrips.rou.xml"/>
    <mismatch-output value="mismatch.xml"/>
    <attributes value="departLane=&quot;best&quot;"/>
</configuration>
-->

<routes xmlns:xsi="http://www.w3.org/2001/XMLSchema-instance" xsi:noNamespaceSchemaLocation="http://sumo.dlr.de/xsd/routes_file.xsd">
<!-- begin="50300.0" end="54100.0" -->
    <vehicle id="0" depart="50302.38" departLane="best">
        <route edges="153021549#0 153021549#1 -149611526#1 -149611526#0 -166142951#1 -166142951#0 -1066221582 -1066221787 140964924 178028204#9"/>
    </vehicle>
    <vehicle id="1" depart="50302.84" departLane="best">
        <route edges="822124413#0 822124413#1 318210358 318210355 318210354#0 -679901152#1 -45875465 -45875465.50 -152839426 -178028204#9 -178028204#9.72 -178028204#4 -178028204#3 -178028203#2 -178028203#1 -1072269112#0 -19589130#4"/>
    </vehicle>
    <vehicle id="2" depart="50304.82" departLane="best">
        <route edges="822124413#0 822124413#1 318210358 318210355 318210354#0 -679901152#1 -45875465 -45875465.50 -152839426 -178028204#9 -178028204#9.72 -178028204#4 -178028204#3 -178028203#2 -178028203#1 -1072269112#0 -19589130#4 -19589130#3 -19589130#2 -19585417#1"/>
    </vehicle>
    <vehicle id="3" depart="50306.08" departLane="best">
        <route edges="-23925122#1 -23925119#1 23925124#1 23925124#2 -166142951#1 -166142951#0 -1066221582 -1066221787 -1066222296#1 -1066222296#0 -137534616 25771472#0 -140964907#3 -140964907#2 -140964907#1 -147053824#5 -147053824#4 -147053824#3 -147053824#2 -147053824#1 -11389403#3 -11389403#2 -11389403#1 E0"/>
    </vehicle>
    <vehicle id="4" depart="50307.89" departLane="best">
        <route edges="40191606 414563781 318210357#0 -679901152#1 -45875465 -45875465.50 -152839426 -178028204#9 -178028204#9.72 -178028204#4 -178028204#3"/>
    </vehicle>
    <vehicle id="5" depart="50308.30" departLane="best">
        <route edges="822124413#0 822124413#1 318210358 318210355 318210354#0 -679901152#1 -45875465 -45875465.50 -152839426 -178028204#9 -178028204#9.72 -178028204#4 -178028204#3 -178028203#2 -178028203#1 20554351"/>
    </vehicle>
    <vehicle id="6" depart="50308.83" departLane="best">
        <route edges="-E0 11389403#1 11389403#2 11389403#3 11391856#2 23913523#0"/>
    </vehicle>
    <vehicle id="7" depart="50310.29" departLane="best">
        <route edges="153021549#0 153021549#1 -149611526#1 -149611526#0 -166142951#1 -166142951#0 -1066221582 -1066221787 -1066222296#1 -1066222296#0 -137534616 25771472#0 -140964907#3 -140964907#2 -140964907#1 -147053824#5 -147053824#4 -147053824#3"/>
    </vehicle>
    <vehicle id="8" depart="50311.06" departLane="best">
        <route edges="-147053824#4 -147053824#3 -147053824#2 -147053824#1 -11389403#3 -11389403#2 -11389403#1 E0"/>
    </vehicle>
    <vehicle id="9" depart="50314.07" departLane="best">
        <route edges="822124413#0 822124413#1 318210358 318210355 318210354#0 -679901152#1 -45875465 -45875465.50 -152839426 -178028204#9 -178028204#9.72 -178028204#4 -178028204#3 -178028203#2 -178028203#1 -1072269112#0"/>
    </vehicle>
    <vehicle id="10" depart="50314.87" departLane="best">
        <route edges="822124413#0 822124413#1 318210358 318210355 318210354#0 -679901152#1 -45875465 -45875465.50 -152839426"/>
    </vehicle>
    <vehicle id="11" depart="50315.05" departLane="best">
        <route edges="-152839426 -178028204#9 -178028204#9.72 -178028204#4 -178028204#3 -178028203#2 -178028203#1 -1072269112#0 -1072269113 -147053824#5 -147053824#4 -147053824#3 -146511475#0 -1093549550#1 -1093549550#0"/>
    </vehicle>
    <vehicle id="12" depart="50315.60" departLane="best">
        <route edges="822124413#0 822124413#1 318210358 318210355 318210354#0 -679901152#1 -45875465 -45875465.50 -152839426 -178028204#9 -178028204#9.72 -178028204#4 -178028204#3 -178028203#2 -178028203#1 20554351"/>
    </vehicle>
    <vehicle id="13" depart="50317.91" departLane="best">
        <route edges="822124413#0 822124413#1 318210358 318210355 318210354#0 -679901152#1 -45875465 -45875465.50 -152839426 -178028204#9 -178028204#9.72 -178028204#4 -178028204#3 -178028203#2 -178028203#1 -1072269112#0 -1072269113 -147053824#5 -147053824#4"/>
    </vehicle>
    <vehicle id="14" depart="50318.50" departLane="best">
        <route edges="153021549#0 153021549#1 -149611526#1 -149611526#0 -166142951#1 -166142951#0 -1066221582 -1066221787 -1066222296#1 -1066222296#0 -137534616 25771472#0 -140964907#3 -140964907#2 -140964907#1 -147053824#5 -147053824#4 -147053824#3 -147053824#2 -147053824#1 -11389403#3 -11389403#2 -11389403#1 E0"/>
    </vehicle>
    <vehicle id="15" depart="50318.56" departLane="best">
        <route edges="822124413#0 822124413#1 318210358 318210355 318210354#0 -679901152#1 -45875465 -45875465.50 -152839426"/>
    </vehicle>
    <vehicle id="16" depart="50319.30" departLane="best">
        <route edges="822124413#0 822124413#1 318210358 318210355 318210354#0 -679901152#1 -45875465 -45875465.50 -152839426 -178028204#9 -178028204#9.72 -178028204#4 -178028204#3 -178028203#2 -178028203#1 -1072269112#0 -1072269113 -147053824#5 -147053824#4 -140964927#4 -140964927#3 -140964927#2 19585417#1"/>
    </vehicle>
    <vehicle id="17" depart="50320.51" departLane="best">
        <route edges="822124413#0 822124413#1 318210358 318210355 318210354#0 -679901152#1 -45875465 -45875465.50 -152839426"/>
    </vehicle>
    <vehicle id="18" depart="50320.69" departLane="best">
        <route edges="-E0 11389403#1 11389403#2 11389403#3 147053824#1 147053824#2"/>
    </vehicle>
    <vehicle id="19" depart="50324.80" departLane="best">
        <route edges="40191607#2 -23913526#0 187123053#5 187123053#6 -152839426 -178028204#9 -178028204#9.72 -178028204#4 -178028204#3 149611534#0 149611534#1"/>
    </vehicle>
    <vehicle id="20" depart="50325.83" departLane="best">
        <route edges="153021549#0 153021549#1 1102336903#0 40191606 414563781 318210357#0 -679901152#1 -45875465 -45875465.50 -152839426"/>
    </vehicle>
    <vehicle id="21" depart="50325.99" departLane="best">
        <route edges="153021549#0 153021549#1 -149611526#1 -149611526#0 -166142951#1 -166142951#0 -1066221582 -1066221787 -1066222296#1 -1066222296#0 -137534616 25771472#0 -140964907#3 -140964907#2 -140964907#1 -147053824#5 -147053824#4 -147053824#3 -147053824#2 -147053824#1 -11389403#3 -11389403#2 -11389403#1 E0"/>
    </vehicle>
    <vehicle id="22" depart="50326.76" departLane="best">
        <route edges="153021549#0 153021549#1 -149611526#1 -149611526#0 -166142951#1 -166142951#0 20553068#0 20553068#1 20553068#2 20553068#3 166142947#1 -187123053#6"/>
    </vehicle>
    <vehicle id="23" depart="50328.09" departLane="best">
        <route edges="-147053824#5 -140964910#3 -140964910#2 -140964910#1 -25771472#1 -25771472#0 137534616 1066222296#0 1066222296#1 1066221786 1066221582 166142951#0 166142951#1 149611526#0 149611526#1 1102336903#0 40191606 414563781 318210357#0 206889086#1 152839448#0 541676219"/>
    </vehicle>
    <vehicle id="24" depart="50329.51" departLane="best">
        <route edges="153021549#0 153021549#1 1102336903#0 40191606 414563781 318210357#0 -679901152#1 -45875465 -45875465.50 -152839426 -178028204#9 -178028204#9.72 -178028204#4 -23788323"/>
    </vehicle>
    <vehicle id="25" depart="50330.43" departLane="best">
        <route edges="-23925122#1 -23925119#1 23925124#1 23925124#2 -166142951#1 -166142951#0 -1066221582 -1066221787 -1066222296#1 -1066222296#0 -137534616 25771472#0 -140964907#3 -140964907#2 -140964907#1 -147053824#5 -147053824#4 -140964927#4 23913523#4 23913523#5"/>
    </vehicle>
    <vehicle id="26" depart="50334.19" departLane="best">
        <route edges="178028203#2 178028204#1 -23788323 -1066222296#0 -137534616 25771472#0 -140964907#3 -140964907#2 -140964907#1 -147053824#5 -147053824#4 -147053824#3 -147053824#2 -147053824#1 -11389403#3 -11389403#2 -11389403#1 E0"/>
    </vehicle>
    <vehicle id="27" depart="50335.80" departLane="best">
        <route edges="153021549#0 153021549#1 -149611526#1 -149611526#0 -166142951#1 -166142951#0 -1066221582 -1066221787 -1066222296#1 -1066222296#0 -137534616 25771472#0 -140964907#3 -140964907#2 -140964907#1 -147053824#5 -147053824#4"/>
    </vehicle>
    <vehicle id="28" depart="50337.16" departLane="best">
        <route edges="822124413#0 822124413#1 318210358 318210355 318210354#0 -679901152#1 -45875465 -45875465.50 -152839426 -178028204#9 -178028204#9.72 -178028204#4 -178028204#3 -178028203#2 -178028203#1 -1072269112#0 -19589130#4"/>
    </vehicle>
    <vehicle id="29" depart="50337.42" departLane="best">
        <route edges="-149611534#0 -178028203#2 -178028203#1 -1072269112#0 -1072269113 -147053824#5 -147053824#4"/>
    </vehicle>
    <vehicle id="30" depart="50338.04" departLane="best">
        <route edges="153021549#0 153021549#1 -149611526#1 -149611526#0 -166142951#1 -166142951#0 -1066221582 -1066221787 -1066222296#1 -1066222296#0 -137534616 25771472#0 -140964907#3 -140964907#2 -140964907#1 -147053824#5 -147053824#4 -147053824#3"/>
    </vehicle>
    <vehicle id="31" depart="50338.43" departLane="best">
        <route edges="153021549#0 153021549#1 -149611526#1 -149611526#0 -166142951#1 -166142951#0 -1066221582 -1066221787 -1066222296#1 -1066222296#0 -137534616 25771472#0 -140964907#3 -140964907#2 -140964907#1 -147053824#5 -147053824#4 -147053824#3"/>
    </vehicle>
    <vehicle id="32" depart="50340.10" departLane="best">
        <route edges="153021549#0 153021549#1 -149611526#1 -149611526#0 -166142951#1 -166142951#0 -1066221582 -1066221787 -1066222296#1 -1066222296#0 -137534616 25771472#0 -140964907#3 -140964907#2 -140964907#1 -147053824#5 -147053824#4 -147053824#3"/>
    </vehicle>
    <vehicle id="33" depart="50340.55" departLane="best">
        <route edges="-23913525#0 -178028204#4 -178028204#3 -178028203#2 -178028203#1 -1072269112#0 -1072269113 -147053824#5"/>
    </vehicle>
    <vehicle id="34" depart="50341.03" departLane="best">
        <route edges="822124413#0 822124413#1 318210358 318210355 318210354#0 40191607#2 40191607#3 140964905#2 140964905#5 140964905#8 -23913525#1 -23913525#0 178028204#9 178028204#9.13"/>
    </vehicle>
    <vehicle id="35" depart="50341.85" departLane="best">
        <route edges="-23925122#1 -23925119#1 23925124#1 23925124#2 -166142951#1 -166142951#0 -1066221582 -1066221787 -1066222296#1 -1066222296#0 -137534616 25771472#0 -140964907#3 -140964907#2 -140964907#1 -147053824#5 -147053824#4 -147053824#3 -147053824#2 -147053824#1"/>
    </vehicle>
    <vehicle id="36" depart="50343.06" departLane="best">
        <route edges="822124413#0 822124413#1 318210358 318210355 318210354#0 -679901152#1 -45875465 -45875465.50 -152839426 -178028204#9 -178028204#9.72 -178028204#4 -178028204#3 -178028203#2 -178028203#1 20554351"/>
    </vehicle>
    <vehicle id="37" depart="50345.29" departLane="best">
        <route edges="-25771472#2 -25771472#1 -25771472#0 137534616 1066222296#0 1066222296#1 1066221786 1066221582 20553068#0 20553068#1 20553068#2 20553068#3 166142947#1 24152326#0"/>
    </vehicle>
    <vehicle id="38" depart="50347.80" departLane="best">
        <route edges="822124413#0 822124413#1 318210358 318210355 318210354#0 -679901152#1 -45875465 -45875465.50 -152839426 -178028204#9 -178028204#9.72 -178028204#4 -178028204#3"/>
    </vehicle>
    <vehicle id="39" depart="50347.87" departLane="best">
        <route edges="-140964907#1 -147053824#5 -147053824#4 -147053824#3 -147053824#2 -147053824#1 -11389403#3 -11389403#2 -11389403#1 E0"/>
    </vehicle>
    <vehicle id="40" depart="50350.96" departLane="best">
        <route edges="40191607#3 140964905#2 140964905#5 140964905#8 -23913525#1 -23913525#0 -178028204#4 -178028204#3 -178028203#2 -178028203#1 -1072269112#0 -1072269113 -147053824#5 -147053824#4 -147053824#3 -147053824#2 -147053824#1 -11389403#3 -11389403#2 -11389403#1 E0"/>
    </vehicle>
    <vehicle id="41" depart="50351.35" departLane="best">
        <route edges="20553068#1 20553068#2 20553068#3 166142947#1 -152839428 -152839428.39 679901152#0 72230304#1 461514282#0 461514282#1"/>
    </vehicle>
    <vehicle id="42" depart="50351.37" departLane="best">
        <route edges="822124413#0 822124413#1 318210358 318210355 318210354#0 -679901152#1 -45875465 -45875465.50 -152839426"/>
    </vehicle>
    <vehicle id="43" depart="50351.91" departLane="best">
        <route edges="-152839426 -178028204#9 -178028204#9.72 -178028204#4 -178028204#3 -178028203#2 -178028203#1 -1072269112#0 -1072269113 -147053824#5 -147053824#4 -147053824#3 -146511475#0 -1093549550#1 -1093549550#0"/>
    </vehicle>
    <vehicle id="44" depart="50352.19" departLane="best">
        <route edges="153021549#0 153021549#1 -149611526#1 -149611526#0 -166142951#1 -166142951#0 -1066221582 -1066221787 140964924 178028204#9"/>
    </vehicle>
    <vehicle id="45" depart="50354.62" departLane="best">
        <route edges="20553068#2 20553068#3 166142947#1 -152839428 -152839428.39 679901152#0 72230304#1 461514282#0 461514282#1"/>
    </vehicle>
    <vehicle id="46" depart="50355.16" departLane="best">
        <route edges="40191607#2 -23913526#0 187123053#5 187123053#6 -152839426 -178028204#9 -178028204#9.72 -178028204#4 -178028204#3 -178028203#2 -178028203#1 -1072269112#0 -1072269113 -147053824#5 -147053824#4 -147053824#3 -147053824#2 -147053824#1 11391856#2 23913523#0 23913523#2 23913523#3"/>
    </vehicle>
    <vehicle id="47" depart="50355.23" departLane="best">
        <route edges="-149611534#0 -178028203#2 -178028203#1 -1072269112#0 -1072269113 -147053824#5 -147053824#4"/>
    </vehicle>
    <vehicle id="48" depart="50355.66" departLane="best">
        <route edges="153021549#0 153021549#1 -149611526#1 -149611526#0 -166142951#1 -166142951#0 -1066221582 -1066221787 -1066222296#1 -1066222296#0 -137534616 25771472#0 -140964907#3 -140964907#2 -140964907#1 -147053824#5 -147053824#4 -147053824#3"/>
    </vehicle>
    <vehicle id="49" depart="50357.09" departLane="best">
        <route edges="153021549#0 153021549#1 1102336903#0 40191606 414563781 318210357#0 -679901152#1 -45875465 -45875465.50 -152839426"/>
    </vehicle>
    <vehicle id="50" depart="50357.66" departLane="best">
        <route edges="-23925119#1 23925124#1 23925124#2 -166142951#1 -166142951#0 -1066221582 -1066221787 -1066222296#1 -1066222296#0 -137534616 25771472#0 -140964907#3 -140964907#2 -140964907#1 -147053824#5 -147053824#4"/>
    </vehicle>
    <vehicle id="51" depart="50358.18" departLane="best">
        <route edges="-23925122#1 23925119#3 40191606 414563781 318210357#0 -679901152#1 -45875465 -45875465.50 -152839426 -178028204#9 -178028204#9.72 -178028204#4 -178028204#3 -178028203#2"/>
    </vehicle>
    <vehicle id="52" depart="50358.70" departLane="best">
        <route edges="166142947#1 -152839428 -152839428.39 679901152#0 206889086#1 152839448#0 541676219"/>
    </vehicle>
    <vehicle id="53" depart="50358.89" departLane="best">
        <route edges="822124413#0 822124413#1 318210358 318210355 318210354#0 -679901152#1 -45875465 -45875465.50 -152839426 -178028204#9 -178028204#9.72 -178028204#4 -178028204#3 -178028203#2 -178028203#1 -1072269112#0 -1072269113 140964907#1 140964907#2 140964907#3"/>
    </vehicle>
    <vehicle id="54" depart="50359.64" departLane="best">
        <route edges="-23925122#1 -23925119#1 23925124#1 23925124#2 -166142951#1 -166142951#0 -1066221582 -1066221787 -1066222296#1 -1066222296#0 -137534616 25771472#0 -140964907#3 -140964907#2 -140964907#1 -147053824#5 -147053824#4 -140964927#4 -23913523#3 -23913523#2 -23913523#0"/>
    </vehicle>
    <vehicle id="55" depart="50360.24" departLane="best">
        <route edges="153021549#0 153021549#1 -149611526#1 -149611526#0 -166142951#1 -166142951#0 -1066221582 -1066221787 140964924 178028204#9"/>
    </vehicle>
    <vehicle id="56" depart="50360.24" departLane="best">
        <route edges="153021549#0 153021549#1 1102336903#0 40191606 414563781 318210357#0 -679901152#1 -45875465 -45875465.50 -152839426"/>
    </vehicle>
    <vehicle id="57" depart="50360.50" departLane="best">
        <route edges="20553068#2 20553068#3 166142947#1 -152839428 -152839428.39 679901152#0 72230304#1 461514282#0 461514282#1"/>
    </vehicle>
    <vehicle id="58" depart="50365.69" departLane="best">
        <route edges="153021549#0 153021549#1 -149611526#1 -149611526#0 -166142951#1 -166142951#0 -1066221582 -1066221787 -1066222296#1 -1066222296#0 -137534616 25771472#0 -140964907#3 -140964907#2 -140964907#1 -147053824#5 -147053824#4 -147053824#3"/>
    </vehicle>
    <vehicle id="59" depart="50367.05" departLane="best">
        <route edges="822124413#0 822124413#1 318210358 318210355 318210354#0 -679901152#1 -45875465 -45875465.50 24152326#0 24152326#1 23925124#0 23925124#1 23925124#2 -166142951#1 -166142951#0 -1066221582 -1066221787 -1066222296#1 23788323"/>
    </vehicle>
    <vehicle id="60" depart="50367.15" departLane="best">
        <route edges="-E0 11389403#1 11389403#2 11389403#3 147053824#1 147053824#2"/>
    </vehicle>
    <vehicle id="61" depart="50367.31" departLane="best">
        <route edges="153021549#0 153021549#1 1102336903#0 40191606 414563781 318210357#0 -679901152#1 -45875465 -45875465.50 -152839426 -178028204#9 -178028204#9.72 -140964924"/>
    </vehicle>
    <vehicle id="62" depart="50368.35" departLane="best">
        <route edges="40191607#3 140964905#2 140964905#5 140964905#8 -23913525#1 -23913525#0 -178028204#4 -178028204#3 -178028203#2 -178028203#1 -1072269112#0 -1072269113 -147053824#5 -147053824#4 -147053824#3 -147053824#2 -147053824#1 -11389403#3 -11389403#2 -11389403#1 E0"/>
    </vehicle>
    <vehicle id="63" depart="50368.63" departLane="best">
        <route edges="-147053824#4 -140964927#4 -140964927#3 -140964927#2 -19585417#0"/>
    </vehicle>
    <vehicle id="64" depart="50369.81" departLane="best">
        <route edges="-147053824#5 -140964910#3 -140964910#2 -140964910#1 -25771472#1 -25771472#0 137534616 1066222296#0 1066222296#1 1066221786 1066221582 166142951#0 166142951#1 149611526#0 149611526#1 1102336903#0 40191606 414563781 318210357#0 72230304#1 461514282#0 461514282#1"/>
    </vehicle>
    <vehicle id="65" depart="50369.85" departLane="best">
        <route edges="153021549#0 153021549#1 1102336903#0 40191606 414563781 318210357#0 -679901152#1 -45875465 -45875465.50 -152839426 -20553068#3"/>
    </vehicle>
    <vehicle id="66" depart="50370.42" departLane="best">
        <route edges="-1072269112#0 -1072269113 -147053824#5 -147053824#4 -147053824#3 -147053824#2 -147053824#1 -11389403#3 -11389403#2 -11389403#1 E0"/>
    </vehicle>
    <vehicle id="67" depart="50371.93" departLane="best">
        <route edges="147053824#5 1072269113 1072269112#0 178028203#1 178028203#2 178028204#1 178028204#4 178028204#9 178028204#9.13 166142947#1 -152839428 -152839428.39 679901152#0 206889086#1 152839448#0 541676219"/>
    </vehicle>
    <vehicle id="68" depart="50372.58" departLane="best">
        <route edges="822124413#0 822124413#1 318210358 318210355 318210354#0 -679901152#1 -45875465 -45875465.50 -152839426"/>
    </vehicle>
    <vehicle id="69" depart="50372.84" departLane="best">
        <route edges="166142947#1 -152839428 -152839428.39 679901152#0 206889086#1 152839448#0 541676219"/>
    </vehicle>
    <vehicle id="70" depart="50373.90" departLane="best">
        <route edges="822124413#0 822124413#1 318210358 318210355 318210354#0 -679901152#1 -45875465 -45875465.50 -152839426 -178028204#9 -178028204#9.72 -178028204#4 -178028204#3 -178028203#2 -178028203#1 -1072269112#0 -1072269113 -147053824#5 -147053824#4 35554226#1 35554226#2 35554226#3"/>
    </vehicle>
    <vehicle id="71" depart="50376.17" departLane="best">
        <route edges="153021549#0 153021549#1 -149611526#1 -149611526#0 -166142951#1 -166142951#0 -1066221582 -1066221787 -1066222296#1 -1066222296#0 -137534616 25771472#0 -140964907#3 -140964907#2 -140964907#1 -147053824#5 -147053824#4 -147053824#3"/>
    </vehicle>
    <vehicle id="72" depart="50376.20" departLane="best">
        <route edges="11389403#2 11389403#3 11391856#2 11391856#3"/>
    </vehicle>
    <vehicle id="73" depart="50380.02" departLane="best">
        <route edges="20553068#1 20553068#2 20553068#3 166142947#1 -152839428 -152839428.39 679901152#0 72230304#1 461514282#0 461514282#1"/>
    </vehicle>
    <vehicle id="74" depart="50382.25" departLane="best">
        <route edges="153021549#0 153021549#1 -149611526#1 -149611526#0 -166142951#1 -166142951#0 -1066221582 -1066221787 140964924 178028204#9"/>
    </vehicle>
    <vehicle id="75" depart="50382.46" departLane="best">
        <route edges="40191607#3 140964905#2 140964905#5 140964905#8 -23913525#1 -23913525#0 -178028204#4 -178028204#3 -178028203#2 -178028203#1 -1072269112#0 -1072269113 -147053824#5 -147053824#4 -147053824#3 -147053824#2 -147053824#1 -11389403#3 -11389403#2 -11389403#1 E0"/>
    </vehicle>
    <vehicle id="76" depart="50385.31" departLane="best">
        <route edges="822124413#0 822124413#1 318210358 318210355 318210354#0 -679901152#1 -45875465 -45875465.50 -152839426 -178028204#9 -178028204#9.72 -178028204#4 -178028204#3 -178028203#2 -178028203#1 20554351"/>
    </vehicle>
    <vehicle id="77" depart="50389.65" departLane="best">
        <route edges="-147053824#5 -140964910#3 -140964910#2 -140964910#1 -25771472#1 -25771472#0 137534616 1066222296#0 1066222296#1 1066221786 1066221582 166142951#0 166142951#1 149611526#0 149611526#1 1102336903#0 40191606 414563781 318210357#0 72230304#1 461514282#0 461514282#1"/>
    </vehicle>
    <vehicle id="78" depart="50391.98" departLane="best">
        <route edges="822124413#0 822124413#1 318210358 318210355 318210354#0 -679901152#1 -45875465 -45875465.50 -152839426"/>
    </vehicle>
    <vehicle id="79" depart="50393.75" departLane="best">
        <route edges="-147053824#5 -140964910#3 -140964910#2 -140964910#1 -25771472#1 -25771472#0 137534616 1066222296#0 1066222296#1 1066221786 1066221582 166142951#0 166142951#1 149611526#0 149611526#1 1102336903#0 40191606 414563781 318210357#0 72230304#1 461514282#0 461514282#1"/>
    </vehicle>
    <vehicle id="80" depart="50394.47" departLane="best">
        <route edges="20553068#2 20553068#3 166142947#1 -152839428 -152839428.39 679901152#0 72230304#1 461514282#0 461514282#1"/>
    </vehicle>
    <vehicle id="81" depart="50394.94" departLane="best">
        <route edges="153021549#0 153021549#1 -149611526#1 -149611526#0 -166142951#1 -166142951#0 -1066221582 -1066221787 -1066222296#1 -1066222296#0 -137534616 25771472#0 -140964907#3 -140964907#2 -140964907#1 -147053824#5 -147053824#4 -147053824#3"/>
    </vehicle>
    <vehicle id="82" depart="50398.41" departLane="best">
        <route edges="153021549#0 153021549#1 -149611526#1 -149611526#0 -166142951#1 -166142951#0 -1066221582 -1066221787 -1066222296#1 -1066222296#0 -137534616 25771472#0 -140964907#3 -140964907#2 -140964907#1 -147053824#5 -147053824#4"/>
    </vehicle>
    <vehicle id="83" depart="50399.40" departLane="best">
        <route edges="822124413#0 822124413#1 318210358 318210355 318210354#0 -679901152#1 -45875465 -45875465.50 -152839426 -178028204#9 -178028204#9.72 -178028204#4 -178028204#3 -178028203#2 -178028203#1 -1072269112#0 -1072269113 -147053824#5 -147053824#4"/>
    </vehicle>
    <vehicle id="84" depart="50402.91" departLane="best">
        <route edges="822124413#0 822124413#1 318210358 318210355 318210354#0 -679901152#1 -45875465 -45875465.50 -152839426 -178028204#9 -178028204#9.72 -178028204#4 -178028204#3 -178028203#2 -178028203#1 -1072269112#0 -19589130#4"/>
    </vehicle>
    <vehicle id="85" depart="50404.39" departLane="best">
        <route edges="153021549#0 153021549#1 -149611526#1 -149611526#0 -166142951#1 -166142951#0 -1066221582 -1066221787 -1066222296#1 -1066222296#0 -137534616 25771472#0 -140964907#3 -140964907#2 -140964907#1 -147053824#5 -147053824#4"/>
    </vehicle>
    <vehicle id="86" depart="50407.27" departLane="best">
        <route edges="-166142951#1 -166142951#0 -1066221582 -1066221787 -1066222296#1 -1066222296#0 -137534616 25771472#0 -140964907#3 -140964907#2 -140964907#1 -147053824#5 -147053824#4 35554226#1"/>
    </vehicle>
    <vehicle id="87" depart="50408.57" departLane="best">
        <route edges="-23925119#1 23925124#1 23925124#2 -166142951#1 -166142951#0 -1066221582 -1066221787 -1066222296#1 -1066222296#0 -137534616 25771472#0 -140964907#3 -140964907#2 -140964907#1 -147053824#5 -147053824#4"/>
    </vehicle>
    <vehicle id="88" depart="50409.44" departLane="best">
        <route edges="822124413#0 822124413#1 318210358 318210355 318210354#0 -679901152#1 -45875465 -45875465.50 -152839426"/>
    </vehicle>
    <vehicle id="89" depart="50409.58" departLane="best">
        <route edges="20553068#1 20553068#2 20553068#3 166142947#1 -152839428 -152839428.39 679901152#0 72230304#1 461514282#0 461514282#1"/>
    </vehicle>
    <vehicle id="90" depart="50409.99" departLane="best">
        <route edges="-178028204#4 -23788323 1066222296#1 1066221786 1066221582 166142951#0 166142951#1 149611526#0 149611526#1 1102336903#0 40191606 414563781 318210357#0 72230304#1 461514282#0 461514282#1"/>
    </vehicle>
    <vehicle id="91" depart="50410.67" departLane="best">
        <route edges="822124413#0 822124413#1 318210358 318210355 318210354#0 -679901152#1 -45875465 -45875465.50 -152839426 -178028204#9 -178028204#9.72 -178028204#4 -178028204#3"/>
    </vehicle>
    <vehicle id="92" depart="50410.85" departLane="best">
        <route edges="-147053824#3 -146511475#0 -1093549550#1 -1093549550#0 20553444 -35554229#1 -35554229#0 -25771472#2 -25771472#1 -25771472#0 137534616 1066222296#0 1066222296#1 1066221786 1066221582 166142951#0 166142951#1 149611526#0 149611526#1 1102336903#0 40191606 414563781 318210357#0 72230304#1 461514282#0"/>
    </vehicle>
    <vehicle id="93" depart="50413.00" departLane="best">
        <route edges="153021549#0 153021549#1 1102336903#0 40191606 414563781 318210357#0 -679901152#1 -45875465 -45875465.50 -152839426 -178028204#9 -178028204#9.72 -140964924"/>
    </vehicle>
    <vehicle id="94" depart="50413.20" departLane="best">
        <route edges="822124413#0 822124413#1 318210358 318210355 318210354#0 -679901152#1 -45875465 -45875465.50 -152839426 -178028204#9 -178028204#9.72 -178028204#4 -178028204#3 -178028203#2 -178028203#1 20554351"/>
    </vehicle>
    <vehicle id="95" depart="50415.74" departLane="best">
        <route edges="-149611534#1 -149611534#0 -178028203#2 -178028203#1 -1072269112#0 -1072269113 -147053824#5 -147053824#4 35554226#1"/>
    </vehicle>
    <vehicle id="96" depart="50419.10" departLane="best">
        <route edges="153021549#1 -149611526#1 -149611526#0 -166142951#1 -166142951#0 -1066221582 -1066221787 -1066222296#1 23788323 -178028204#3 -178028203#2 -178028203#1 -1072269112#0"/>
    </vehicle>
    <vehicle id="97" depart="50419.49" departLane="best">
        <route edges="822124413#0 822124413#1 318210358 318210355 318210354#0 -679901152#1 -45875465 -45875465.50 -152839426"/>
    </vehicle>
    <vehicle id="98" depart="50419.75" departLane="best">
        <route edges="822124413#0 822124413#1 318210358 318210355 318210354#0 -679901152#1 -45875465 -45875465.50 24152326#0 24152326#1 23925124#0 23925124#1 23925124#2 -166142951#1 -166142951#0 -1066221582 -1066221787 -1066222296#1 -1066222296#0 -137534616 25771472#0 25771472#1 25771472#2 35554229#0 35554229#1 35215636"/>
    </vehicle>
    <vehicle id="99" depart="50422.83" departLane="best">
        <route edges="166142947#1 -152839428 -152839428.39 679901152#0 206889086#1 152839448#0 541676219"/>
    </vehicle>
    <vehicle id="100" depart="50423.08" departLane="best">
        <route edges="153021549#0 153021549#1 -149611526#1 -149611526#0 -166142951#1 -166142951#0 -1066221582 -1066221787 -1066222296#1 -1066222296#0 -137534616 25771472#0 -140964907#3 -140964907#2 -140964907#1 -147053824#5 -147053824#4 -147053824#3 -147053824#2 -147053824#1 -11389403#3 -11389403#2 -11389403#1 E0"/>
    </vehicle>
    <vehicle id="101" depart="50424.86" departLane="best">
        <route edges="153021549#0 153021549#1 -149611526#1 -149611526#0 -166142951#1 -166142951#0 -1066221582 -1066221787 140964924 178028204#9 178028204#9.13"/>
    </vehicle>
    <vehicle id="102" depart="50425.20" departLane="best">
        <route edges="-1066221582 -1066221787 -1066222296#1 -1066222296#0 -137534616 25771472#0 -140964907#3 -140964907#2 -140964907#1 -147053824#5 -147053824#4 -147053824#3 -147053824#2 -147053824#1 -11389403#3 -11389403#2 -11389403#1 E0"/>
    </vehicle>
    <vehicle id="103" depart="50425.45" departLane="best">
        <route edges="153021549#0 153021549#1 -149611526#1 -149611526#0 -166142951#1 -166142951#0 -1066221582 -1066221787 140964924 178028204#9 178028204#9.13"/>
    </vehicle>
    <vehicle id="104" depart="50426.63" departLane="best">
        <route edges="-147053824#5 -140964910#3 -140964910#2 -140964910#1 -25771472#1 -25771472#0 137534616 1066222296#0 1066222296#1 1066221786 1066221582 166142951#0 166142951#1 149611526#0 149611526#1 1102336903#0 40191606 414563781 318210357#0 72230304#1 461514282#0 461514282#1"/>
    </vehicle>
    <vehicle id="105" depart="50427.47" departLane="best">
        <route edges="40191607#2 -23913526#0 187123053#5 187123053#6 -152839426 -178028204#9 -178028204#9.72 -178028204#4 -178028204#3 -178028203#2 -178028203#1 -1072269112#0 -1072269113 -147053824#5 -147053824#4 -147053824#3 -147053824#2"/>
    </vehicle>
    <vehicle id="106" depart="50430.73" departLane="best">
        <route edges="-1072269112#0 -1072269113 -147053824#5 -147053824#4 -147053824#3 -147053824#2 -147053824#1 -11389403#3 -11389403#2 -11389403#1 E0"/>