<?xml version="1.0" encoding="UTF-8"?>

<!-- generated on 2023-06-14 15:20:06.208555 by routeSampler.py v1_17_0+0871-1d9458f9fa0
<configuration>
    <route-files value="osm.passenger.rou.xml"/>
    <edgedata-files value="edge_data_cars.xml"/>
    <output-file value="samplertrips.rou.xml"/>
    <optimize value="full"/>
</configuration>
-->

<routes xmlns:xsi="http://www.w3.org/2001/XMLSchema-instance" xsi:noNamespaceSchemaLocation="http://sumo.dlr.de/xsd/routes_file.xsd">
<!-- begin="50300.0" end="54100.0" -->
    <vehicle id="0" depart="50300.00">
        <route edges="822124413#1 318210358 318210355 318210354#0 -679901152#1 -45875465 -152839426 -178028204#9 -178028204#4 -178028204#3 -178028203#2 -178028203#1 -1072269112#0 -1072269113 -147053824#5 -147053824#4 -140964927#4 23913523#4 23913523#5"/>
    </vehicle>
    <vehicle id="1" depart="50303.53">
        <route edges="153021549#0 153021549#1 -149611526#1 -149611526#0 -166142951#1 -166142951#0 -1066221582 -1066221787 -1066222296#1 -1066222296#0 -137534616 25771472#0 -140964907#3 -140964907#2 -140964907#1 -147053824#5 -147053824#4 -147053824#3 -147053824#2 -147053824#1 11391856#2 23913523#0"/>
    </vehicle>
    <vehicle id="2" depart="50307.06">
        <route edges="318210355 318210354#0 -679901152#1 -45875465 -152839426 -178028204#9 -178028204#4 -178028204#3 -178028203#2 -178028203#1 -1072269112#0 -1072269113 -147053824#5 -147053824#4 -147053824#3 -147053824#2 -147053824#1 -11389403#3 -11389403#2 -11389403#1 E0"/>
    </vehicle>
    <vehicle id="3" depart="50310.59">
        <route edges="414563781 318210357#0 -679901152#1 -45875465 -152839426 -178028204#9 -178028204#4 -178028204#3 -178028203#2 -178028203#1 -1072269112#0 -1072269113 -147053824#5 -147053824#4 -147053824#3 -147053824#2 -147053824#1"/>
    </vehicle>
    <vehicle id="4" depart="50314.13">
        <route edges="822124413#0 822124413#1 318210358 318210355 318210354#0 -679901152#1 -45875465 -152839426 -178028204#9 -178028204#4 -178028204#3 -178028203#2 -178028203#1 -1072269112#0 -1072269113 -147053824#5 -147053824#4 -147053824#3 -147053824#2 -147053824#1"/>
    </vehicle>
    <vehicle id="5" depart="50317.66">
        <route edges="137534616 -137534616 25771472#0 -140964907#3 -140964907#2 -140964907#1 -147053824#5 -147053824#4 -147053824#3 -147053824#2"/>
    </vehicle>
    <vehicle id="6" depart="50321.19">
        <route edges="822124413#0 822124413#1 318210358 318210355 318210354#0 -679901152#1 -45875465 -152839426 -178028204#9 -178028204#4 -178028204#3 -178028203#2 -178028203#1 -1072269112#0 -1072269113 -147053824#5 -147053824#4 -147053824#3 -147053824#2 -147053824#1 11391856#2 23913523#0 23913523#2 23913523#3"/>
    </vehicle>
    <vehicle id="7" depart="50324.72">
        <route edges="147053824#4 147053824#5 1072269113 1072269112#0 178028203#1 178028203#2 178028204#1 178028204#4 178028204#9 166142947#1 -152839428 679901152#0 72230304#1 461514282#0 461514282#1"/>
    </vehicle>
    <vehicle id="8" depart="50328.25">
        <route edges="153021549#0 153021549#1 1102336903#0 40191606 414563781 318210357#0 -679901152#1 -45875465 -152839426 -178028204#9 -178028204#4 -178028204#3 -178028203#2 -178028203#1 20554351 20554168 178028206#1 178028206#2 178028204#1"/>
    </vehicle>
    <vehicle id="9" depart="50331.78">
        <route edges="822124413#0 822124413#1 318210358 318210355 318210354#0 -679901152#1 -45875465 -152839426 -178028204#9 -178028204#4 -178028204#3 -178028203#2 -178028203#1 -1072269112#0 -1072269113 -147053824#5 -147053824#4 -147053824#3 -147053824#2 -147053824#1 11391856#2 -11391856#2 147053824#1"/>
    </vehicle>
    <vehicle id="10" depart="50335.32">
        <route edges="822124413#0 822124413#1 318210358 318210355 318210354#0 -679901152#1 -45875465 -152839426 -178028204#9 -178028204#4 -178028204#3 -178028203#2 -178028203#1 -1072269112#0 -19589130#4 -19589130#3 -19589130#2 -19585417#1"/>
    </vehicle>
    <vehicle id="11" depart="50338.85">
        <route edges="153021549#0 153021549#1 1102336903#0 40191606 414563781 318210357#0 -679901152#1 -45875465 -152839426 -178028204#9 -178028204#4 -23788323"/>
    </vehicle>
    <vehicle id="12" depart="50342.38">
        <route edges="822124413#0 822124413#1 318210358 318210355 318210354#0 -679901152#1 -45875465 -152839426 -178028204#9 -178028204#4 -178028204#3 -178028203#2 -178028203#1 -1072269112#0 -1072269113 -147053824#5 -147053824#4 -147053824#3 -147053824#2 -147053824#1"/>
    </vehicle>
    <vehicle id="13" depart="50345.91">
        <route edges="-23913523#4 140964927#4 -147053824#3 -147053824#2 -147053824#1 -11389403#3 -11389403#2 -11389403#1 E0"/>
    </vehicle>
    <vehicle id="14" depart="50349.44">
        <route edges="11389403#2 11389403#3 147053824#1 147053824#2 147053824#3 147053824#4 147053824#5 1072269113 1072269112#0 178028203#1 178028203#2 178028204#1 178028204#4 178028204#9 166142947#1 -152839428 679901152#0 206889086#1 152839448#0 541676219"/>
    </vehicle>
    <vehicle id="15" depart="50352.97">
        <route edges="140964927#3 140964927#4 -147053824#3 -147053824#2 -147053824#1 -11389403#3 -11389403#2 -11389403#1 E0"/>
    </vehicle>
    <vehicle id="16" depart="50356.51">
        <route edges="-E0 11389403#1 11389403#2 11389403#3 147053824#1 147053824#2 147053824#3 147053824#4 147053824#5 1072269113 1072269112#0 178028203#1 178028203#2 178028204#1 178028204#4 23913525#0 23913525#1 -23913525#1 -23913525#0 -178028204#4"/>
    </vehicle>
    <vehicle id="17" depart="50360.04">
        <route edges="153021549#0 153021549#1 -149611526#1 -149611526#0 -166142951#1 -166142951#0 -1066221582 -1066221787 -1066222296#1 -1066222296#0 -137534616 25771472#0 -140964907#3 -140964907#2 -140964907#1 -147053824#5 -147053824#4 -147053824#3 -147053824#2 -147053824#1 -11389403#3 -11389403#2 -11389403#1 E0"/>
    </vehicle>
    <vehicle id="18" depart="50363.57">
        <route edges="822124413#0 822124413#1 318210358 318210355 318210354#0 -679901152#1 -45875465 -152839426 -178028204#9 -178028204#4 -178028204#3 -178028203#2 -178028203#1 -1072269112#0 -1072269113 -147053824#5 -147053824#4 -147053824#3 -147053824#2 -147053824#1 11391856#2 -11391856#2 147053824#1"/>
    </vehicle>
    <vehicle id="19" depart="50367.10">
        <route edges="822124413#0 822124413#1 318210358 318210355 318210354#0 -679901152#1 -45875465 -152839426 -178028204#9 -178028204#4 -178028204#3 -178028203#2 -178028203#1 -1072269112#0 -1072269113 -147053824#5 -147053824#4 -147053824#3 -147053824#2 -147053824#1 11391856#2 11391856#3 19585417#0"/>
    </vehicle>
    <vehicle id="20" depart="50370.63">
        <route edges="-147053824#2 -147053824#1 11391856#2 -11391856#2 147053824#1 147053824#2 147053824#3 147053824#4 147053824#5 1072269113 1072269112#0 178028203#1 178028203#2 178028204#1 178028204#4 178028204#9 166142947#1 -152839428 679901152#0 72230304#1 461514282#0 461514282#1"/>
    </vehicle>
    <vehicle id="21" depart="50374.16">
        <route edges="-149611534#1 -149611534#0 178028204#1 178028204#4 178028204#9 166142947#1 -152839428 679901152#0 206889086#1 152839448#0 541676219"/>
    </vehicle>
    <vehicle id="22" depart="50377.70">
        <route edges="822124413#0 822124413#1 318210358 318210355 318210354#0 -679901152#1 -45875465 -152839426 -178028204#9 -178028204#4 -178028204#3 -178028203#2 -178028203#1 -1072269112#0 -1072269113 -147053824#5 -147053824#4 -147053824#3 -147053824#2 -147053824#1 11391856#2 -11391856#2 147053824#1"/>
    </vehicle>
    <vehicle id="23" depart="50381.23">
        <route edges="822124413#0 822124413#1 318210358 318210355 318210354#0 40191607#2 40191607#3 140964905#2 140964905#5 140964905#8 -23913525#1 -23913525#0 178028204#9"/>
    </vehicle>
    <vehicle id="24" depart="50384.76">
        <route edges="153021549#0 153021549#1 -149611526#1 -149611526#0 -166142951#1 -166142951#0 -1066221582 -1066221787 -1066222296#1 -1066222296#0 -137534616 25771472#0 -140964907#3 -140964907#2 -140964907#1 -147053824#5 -147053824#4 -147053824#3 -147053824#2 -147053824#1 -11389403#3 -11389403#2 -11389403#1 E0"/>
    </vehicle>
    <vehicle id="25" depart="50388.29">
        <route edges="822124413#0 822124413#1 318210358 318210355 318210354#0 -679901152#1 -45875465 -152839426 -178028204#9 -178028204#4 -178028204#3 -178028203#2 -178028203#1 -1072269112#0 -1072269113 -147053824#5 -147053824#4 -147053824#3 -147053824#2 -147053824#1 11391856#2 23913523#0 23913523#2 23913523#3"/>
    </vehicle>
    <vehicle id="26" depart="50391.82">
        <route edges="822124413#1 318210358 318210355 318210354#0 -679901152#1 -45875465 -152839426 -178028204#9 -178028204#4 -178028204#3 -178028203#2 -178028203#1 -1072269112#0 -1072269113 -147053824#5 -147053824#4 -147053824#3 -147053824#2 -147053824#1 -11389403#3 -11389403#2 -11389403#1 E0"/>
    </vehicle>
    <vehicle id="27" depart="50395.35">
        <route edges="137534616 -137534616 25771472#0 -140964907#3 -140964907#2 -140964907#1 -147053824#5 -147053824#4 -147053824#3 -147053824#2"/>
    </vehicle>
    <vehicle id="28" depart="50398.88">
        <route edges="23925123#1 24152326#1 23925124#0 23925124#1 23925124#2 -166142951#1 -166142951#0 -1066221582 -1066221787 -1066222296#1 -1066222296#0 -137534616 25771472#0 -140964907#3 -140964907#2 -140964907#1 -147053824#5 -147053824#4 -147053824#3 -147053824#2 -147053824#1 -11389403#3 -11389403#2 -11389403#1 E0"/>
    </vehicle>
    <vehicle id="29" depart="50402.42">
        <route edges="822124413#0 822124413#1 318210358 318210355 318210354#0 -679901152#1 -45875465 -152839426 -178028204#9 -178028204#4 -178028204#3 -178028203#2 -178028203#1 -1072269112#0 -1072269113 -147053824#5 -147053824#4 -147053824#3 -146511475#0"/>
    </vehicle>
    <vehicle id="30" depart="50405.95">
        <route edges="23913523#0 23913523#2 23913523#3 140964927#4 147053824#4 147053824#5 1072269113 1072269112#0 178028203#1 178028203#2 178028204#1 178028204#4 178028204#9 166142947#1 -152839428 679901152#0 72230304#1 461514282#0 461514282#1"/>
    </vehicle>
    <vehicle id="31" depart="50409.48">
        <route edges="822124413#0 822124413#1 318210358 318210355 318210354#0 -679901152#1 -45875465 -152839426 -178028204#9 -178028204#4 -178028204#3 -178028203#2 -178028203#1 -1072269112#0 -1072269113 -147053824#5 -147053824#4 -147053824#3 -147053824#2 -147053824#1"/>
    </vehicle>
    <vehicle id="32" depart="50413.01">
        <route edges="-140964927#3 -140964927#2 140964927#2 140964927#3 140964927#4 147053824#4 147053824#5 1072269113 1072269112#0 178028203#1 178028203#2 178028204#1 178028204#4 178028204#9 166142947#1 -152839428 679901152#0 72230304#1 461514282#0 461514282#1"/>
    </vehicle>
    <vehicle id="33" depart="50416.54">
        <route edges="-E0 11389403#1 11389403#2 11389403#3 147053824#1 147053824#2 147053824#3 147053824#4 -140964910#3 -140964910#2 -140964910#1 -25771472#1"/>
    </vehicle>
    <vehicle id="34" depart="50420.07">
        <route edges="-23913523#5 -23913523#4 140964927#4 -147053824#3 -147053824#2 -147053824#1 -11389403#3 -11389403#2 -11389403#1 E0"/>
    </vehicle>
    <vehicle id="35" depart="50423.61">
        <route edges="19585417#0 140964927#2 140964927#3 140964927#4 147053824#4 147053824#5 1072269113 1072269112#0 178028203#1 178028203#2 178028204#1 178028204#4 178028204#9 166142947#1 -152839428 679901152#0 206889086#1 152839448#0 541676219"/>
    </vehicle>
    <vehicle id="36" depart="50427.14">
        <route edges="822124413#0 822124413#1 318210358 318210355 318210354#0 -679901152#1 -45875465 -152839426 -178028204#9 -178028204#4 -178028204#3 149611534#0 149611534#1"/>
    </vehicle>
    <vehicle id="37" depart="50430.67">
        <route edges="-178028204#3 -178028203#2 -178028203#1 20554351 20554168 178028206#1 178028206#2 178028204#1 178028204#4 178028204#9 166142947#1 -152839428 679901152#0 206889086#1 152839448#0 541676219"/>
    </vehicle>
    <vehicle id="38" depart="50434.20">
        <route edges="-E0 11389403#1 11389403#2 11389403#3 147053824#1 147053824#2 147053824#3 147053824#4 147053824#5 1072269113 1072269112#0 178028203#1 178028203#2 178028204#1 178028204#4 178028204#9 166142947#1 -152839428 679901152#0 206889086#1 152839448#0 541676219"/>
    </vehicle>
    <vehicle id="39" depart="50437.73">
        <route edges="147053824#1 147053824#2 147053824#3 147053824#4 147053824#5 1072269113 -19589130#4 -19589130#3 -23913523#5"/>
    </vehicle>
    <vehicle id="40" depart="50441.26">
        <route edges="140964905#8 -23913525#1 -23913525#0 178028204#9 166142947#1 -152839428 679901152#0 72230304#1 461514282#0 461514282#1"/>
    </vehicle>
    <vehicle id="41" depart="50444.80">
        <route edges="822124413#0 822124413#1 318210358 318210355 318210354#0 -679901152#1 -45875465 -152839426 -178028204#9 -178028204#4 -178028204#3 -178028203#2 -178028203#1 -1072269112#0 -19589130#4 -19589130#3 -19589130#2 -19585417#1"/>
    </vehicle>
    <vehicle id="42" depart="50448.33">
        <route edges="822124413#0 822124413#1 318210358 318210355 318210354#0 -679901152#1 -45875465 -152839426 -178028204#9 -178028204#4 -178028204#3 -178028203#2 -178028203#1 -1072269112#0 -1072269113 -147053824#5 -147053824#4 -147053824#3 -147053824#2 -147053824#1 11391856#2 23913523#0 23913523#2 23913523#3"/>
    </vehicle>
    <vehicle id="43" depart="50451.86">
        <route edges="822124413#0 822124413#1 318210358 318210355 318210354#0 -679901152#1 -45875465 -152839426 -178028204#9 -178028204#4 -178028204#3 -178028203#2 -178028203#1 -1072269112#0 -1072269113 -147053824#5 -147053824#4 -147053824#3 -147053824#2 -147053824#1 11391856#2 -11391856#2 147053824#1"/>
    </vehicle>
    <vehicle id="44" depart="50455.39">
        <route edges="822124413#0 822124413#1 318210358 318210355 318210354#0 -679901152#1 -45875465 -152839426 -178028204#9 -178028204#4 -178028204#3 -178028203#2 -178028203#1 -1072269112#0 -1072269113 -147053824#5 -147053824#4 -147053824#3 -147053824#2 -147053824#1 11391856#2 23913523#0 23913523#2 23913523#3"/>
    </vehicle>
    <vehicle id="45" depart="50458.92">
        <route edges="-19589130#4 -19589130#3 19589130#3 19589130#4 1072269112#0 178028203#1 178028203#2 178028204#1 178028204#4 178028204#9 166142947#1 -152839428 679901152#0 206889086#1 152839448#0 541676219"/>
    </vehicle>
    <vehicle id="46" depart="50462.45">
        <route edges="-178028204#3 -178028203#2 -178028203#1 20554351 20554168 178028206#1 178028206#2 178028204#1 178028204#4 178028204#9 166142947#1 -152839428 679901152#0 206889086#1 152839448#0 541676219"/>
    </vehicle>
    <vehicle id="47" depart="50465.99">
        <route edges="-11391856#3 -11391856#2 147053824#1 147053824#2 147053824#3 147053824#4 147053824#5 1072269113 1072269112#0 178028203#1 178028203#2 178028204#1 178028204#4 178028204#9 166142947#1 -152839428 679901152#0 72230304#1"/>
    </vehicle>
    <vehicle id="48" depart="50469.52">
        <route edges="414563781 318210357#0 -679901152#1 -45875465 -152839426 -178028204#9 -178028204#4 -178028204#3 -178028203#2 -178028203#1 -1072269112#0 -1072269113 -147053824#5 -147053824#4 -147053824#3 -147053824#2 -147053824#1"/>
    </vehicle>
    <vehicle id="49" depart="50473.05">
        <route edges="153021549#0 153021549#1 -149611526#1 -149611526#0 -166142951#1 -166142951#0 -1066221582 -1066221787 -1066222296#1 -1066222296#0 -137534616 25771472#0 -140964907#3 -140964907#2 -140964907#1 -147053824#5 -147053824#4 -147053824#3 -147053824#2 -147053824#1 11391856#2 23913523#0"/>
    </vehicle>
    <vehicle id="50" depart="50476.58">
        <route edges="-23925122#1 -23925119#1 23925124#1 23925124#2 -166142951#1 -166142951#0 -1066221582 -1066221787 -1066222296#1 -1066222296#0 -137534616 25771472#0 -140964907#3 -140964907#2 -140964907#1 -147053824#5 -147053824#4 -147053824#3 -147053824#2 -147053824#1 -11389403#3 -11389403#2"/>
    </vehicle>
    <vehicle id="51" depart="50480.11">
        <route edges="153021549#0 153021549#1 -149611526#1 -149611526#0 -166142951#1 -166142951#0 -1066221582 -1066221787 -1066222296#1 -1066222296#0 -137534616 25771472#0 -140964907#3 -140964907#2 -140964907#1 -147053824#5 -147053824#4 -147053824#3 -147053824#2 -147053824#1 11391856#2 23913523#0 23913523#2 23913523#3"/>
    </vehicle>
    <vehicle id="52" depart="50483.64">
        <route edges="137534616 -137534616 25771472#0 -140964907#3 -140964907#2 -140964907#1 -147053824#5 -147053824#4 -147053824#3 -147053824#2"/>
    </vehicle>
    <vehicle id="53" depart="50487.17">
        <route edges="-23925122#1 -23925119#1 23925124#1 23925124#2 -166142951#1 -166142951#0 -1066221582 -1066221787 -1066222296#1 -1066222296#0 -137534616 25771472#0 -140964907#3 -140964907#2 -140964907#1 -147053824#5 -147053824#4 -147053824#3 -147053824#2 -147053824#1 -11389403#3 -11389403#2 -11389403#1 E0"/>
    </vehicle>
    <vehicle id="54" depart="50490.71">
        <route edges="140964924 -178028204#4 -178028204#3 -178028203#2 -178028203#1 -1072269112#0 -1072269113 -147053824#5 -147053824#4 -147053824#3 -147053824#2 -147053824#1 11391856#2 11391856#3 19585417#0"/>
    </vehicle>
    <vehicle id="55" depart="50494.24">
        <route edges="19589130#2 19589130#3 19589130#4 1072269112#0 178028203#1 178028203#2 178028204#1 178028204#4 178028204#9 166142947#1 -152839428 679901152#0 72230304#1 461514282#0 461514282#1"/>
    </vehicle>
    <vehicle id="56" depart="50497.77">
        <route edges="822124413#0 822124413#1 318210358 318210355 318210354#0 -679901152#1 -45875465 -152839426 -178028204#9 -178028204#4 -178028204#3 -178028203#2 -178028203#1 -1072269112#0 -1072269113 -147053824#5 -147053824#4 -147053824#3 -147053824#2 -147053824#1 11391856#2 -11391856#2 147053824#1"/>
    </vehicle>
    <vehicle id="57" depart="50501.30">
        <route edges="23913523#0 23913523#2 23913523#3 140964927#4 147053824#4 147053824#5 1072269113 1072269112#0 178028203#1 178028203#2 178028204#1 178028204#4 178028204#9 166142947#1 -152839428 679901152#0 40191607#2 40191607#3 40191607#4 40191607#5 40191607#6 20552644#2"/>
    </vehicle>
    <vehicle id="58" depart="50504.83">
        <route edges="178028203#2 178028204#1 178028204#4 178028204#9 166142947#1 -152839428 679901152#0 72230304#1 461514282#0 461514282#1"/>
    </vehicle>
    <vehicle id="59" depart="50508.36">
        <route edges="822124413#0 822124413#1 318210358 318210355 318210354#0 -679901152#1 -45875465 -152839426 -178028204#9 -178028204#4 -178028204#3 -178028203#2 -178028203#1 -1072269112#0 -1072269113 -147053824#5 -147053824#4 -147053824#3 -147053824#2 -147053824#1"/>
    </vehicle>
    <vehicle id="60" depart="50511.90">
        <route edges="140964927#3 140964927#4 -147053824#3 -147053824#2 -147053824#1 -11389403#3 -11389403#2 -11389403#1 E0"/>
    </vehicle>
    <vehicle id="61" depart="50515.43">
        <route edges="140964910#1 140964910#2 140964910#3 147053824#5 1072269113 1072269112#0 178028203#1 178028203#2 178028204#1 178028204#4 178028204#9 166142947#1 -152839428 679901152#0 72230304#1 461514282#0 461514282#1"/>
    </vehicle>
    <vehicle id="62" depart="50518.96">
        <route edges="23913525#1 -23913525#1 -23913525#0 178028204#9 166142947#1 -152839428 679901152#0 72230304#1 461514282#0 461514282#1"/>
    </vehicle>
    <vehicle id="63" depart="50522.49">
        <route edges="-E0 11389403#1 11389403#2 11389403#3 147053824#1 147053824#2 147053824#3 147053824#4 147053824#5 1072269113 1072269112#0 140964915#0 140964915#1 140964915#2 137534616 1066222296#0 1066222296#1 1066221786 1066221582 166142951#0 166142951#1 149611511#0"/>
    </vehicle>
    <vehicle id="64" depart="50526.02">
        <route edges="23925123#1 24152326#1 23925124#0 23925124#1 23925124#2 -166142951#1 -166142951#0 -1066221582 -1066221787 -1066222296#1 -1066222296#0 -137534616 25771472#0 -140964907#3 -140964907#2 -140964907#1 -147053824#5 -147053824#4 -147053824#3 -147053824#2 -147053824#1 -11389403#3 -11389403#2 -11389403#1 E0"/>
    </vehicle>
    <vehicle id="65" depart="50529.55">
        <route edges="822124413#0 822124413#1 318210358 318210355 318210354#0 -679901152#1 -45875465 -152839426 -178028204#9 -178028204#4 -178028204#3 -178028203#2 -178028203#1 -1072269112#0 -1072269113 -147053824#5 -147053824#4 -140964927#4 -140964927#3 -140964927#2 -19585417#0"/>
    </vehicle>
    <vehicle id="66" depart="50533.09">
        <route edges="318210355 318210354#0 -679901152#1 -45875465 -152839426 -178028204#9 -178028204#4 -178028204#3 -178028203#2 -178028203#1 -1072269112#0 -1072269113 -147053824#5 -147053824#4 -147053824#3 -147053824#2 -147053824#1 -11389403#3 -11389403#2 -11389403#1 E0"/>
    </vehicle>
    <vehicle id="67" depart="50536.62">
        <route edges="822124413#0 822124413#1 318210358 318210355 318210354#0 -679901152#1 -45875465 -152839426 -178028204#9 -178028204#4 -178028204#3 -178028203#2 -178028203#1 -1072269112#0 -1072269113 -147053824#5 -147053824#4 -140964927#4 -23913523#3"/>
    </vehicle>
    <vehicle id="68" depart="50540.15">
        <route edges="153021549#0 153021549#1 -149611526#1 -149611526#0 -166142951#1 -166142951#0 -1066221582 -1066221787 -1066222296#1 -1066222296#0 -137534616 25771472#0 -140964907#3 -140964907#2 -140964907#1 -147053824#5 -147053824#4 -147053824#3 -147053824#2 -147053824#1 11391856#2 11391856#3"/>
    </vehicle>
    <vehicle id="69" depart="50543.68">
        <route edges="822124413#0 822124413#1 318210358 318210355 318210354#0 -679901152#1 -45875465 -152839426 -178028204#9 -178028204#4 -178028204#3 -178028203#2 -178028203#1 -1072269112#0 -1072269113 -147053824#5 -147053824#4 -140964927#4 -140964927#3 -140964927#2 140964927#2 140964927#3"/>
    </vehicle>
    <vehicle id="70" depart="50547.21">
        <route edges="153021549#0 153021549#1 -149611526#1 -149611526#0 -166142951#1 -166142951#0 -1066221582 -1066221787 -1066222296#1 -1066222296#0 -137534616 25771472#0 -140964907#3 -140964907#2 -140964907#1 -147053824#5 -147053824#4 -147053824#3 -147053824#2 -147053824#1 -11389403#3 -11389403#2 -11389403#1 E0"/>
    </vehicle>
    <vehicle id="71" depart="50550.74">
        <route edges="822124413#0 822124413#1 318210358 318210355 318210354#0 -679901152#1 -45875465 -152839426 -178028204#9 -178028204#4 -178028204#3 -178028203#2 -178028203#1 -1072269112#0 -19589130#4 -19589130#3 -19589130#2 -19585417#1"/>
    </vehicle>
    <vehicle id="72" depart="50554.28">
        <route edges="153021549#0 153021549#1 1102336903#0 40191606 414563781 318210357#0 -679901152#1 -45875465 -152839426 -178028204#9 -178028204#4 -178028204#3 149611534#0 149611534#1"/>
    </vehicle>
    <vehicle id="73" depart="50557.81">
        <route edges="822124413#0 822124413#1 318210358 318210355 318210354#0 -679901152#1 -45875465 -152839426 -178028204#9 -178028204#4 -178028204#3 -178028203#2 -178028203#1 -1072269112#0 -1072269113 -147053824#5 -147053824#4 -147053824#3 -147053824#2 -147053824#1"/>
    </vehicle>
    <vehicle id="74" depart="50561.34">
        <route edges="-19589130#4 -19589130#3 19589130#3 19589130#4 1072269112#0 178028203#1 178028203#2 178028204#1 178028204#4 178028204#9 166142947#1 -152839428 679901152#0 40191607#2 40191607#3 40191607#4 40191607#5 40191607#6 20552644#2"/>
    </vehicle>
    <vehicle id="75" depart="50564.87">
        <route edges="140964924 -178028204#4 -178028204#3 -178028203#2 -178028203#1 -1072269112#0 -1072269113 -147053824#5 -147053824#4 -147053824#3 -147053824#2 -147053824#1 11391856#2 11391856#3 19585417#0"/>
    </vehicle>
    <vehicle id="76" depart="50568.40">
        <route edges="822124413#1 318210358 318210355 318210354#0 -679901152#1 -45875465 -152839426 -178028204#9 -178028204#4 -178028204#3 -178028203#2 -178028203#1 -1072269112#0 -1072269113 -147053824#5 -147053824#4 -147053824#3 -147053824#2 -147053824#1 -11389403#3 -11389403#2 -11389403#1 E0"/>
    </vehicle>
    <vehicle id="77" depart="50571.93">
        <route edges="153021549#0 153021549#1 -149611526#1 -149611526#0 -166142951#1 -166142951#0 -1066221582 -1066221787 -1066222296#1 -1066222296#0 -137534616 25771472#0 -140964907#3 -140964907#2 -140964907#1 -147053824#5 -147053824#4 -147053824#3 -147053824#2 -147053824#1 -11389403#3 -11389403#2 -11389403#1 E0"/>
    </vehicle>
    <vehicle id="78" depart="50575.46">
        <route edges="23913523#3 140964927#4 -147053824#3 -147053824#2 -147053824#1 -11389403#3 -11389403#2 -11389403#1 E0"/>
    </vehicle>
    <vehicle id="79" depart="50579.00">
        <route edges="52036180#5 -679901152#1 -45875465 -152839426 -178028204#9 -178028204#4 -178028204#3 149611534#0"/>
    </vehicle>
    <vehicle id="80" depart="50582.53">
        <route edges="-45875465 -152839426 -178028204#9 -178028204#4 -178028204#3 -178028203#2 -178028203#1 -1072269112#0 -1072269113 -147053824#5 -147053824#4 -147053824#3 -147053824#2 -147053824#1 -11389403#3 -11389403#2 -11389403#1 E0"/>
    </vehicle>
    <vehicle id="81" depart="50586.06">
        <route edges="140964924 -178028204#4 -178028204#3 -178028203#2 -178028203#1 -1072269112#0 -1072269113 -147053824#5 -147053824#4 -147053824#3 -147053824#2 -147053824#1 11391856#2 11391856#3 19585417#0"/>
    </vehicle>
    <vehicle id="82" depart="50589.59">
        <route edges="-19589130#4 -19589130#3 19589130#3 19589130#4 1072269112#0 178028203#1 178028203#2 178028204#1 178028204#4 178028204#9 166142947#1 -152839428 679901152#0 206889086#1 152839448#0 541676219"/>
    </vehicle>
    <vehicle id="83" depart="50593.12">
        <route edges="-147053824#2 -147053824#1 11391856#2 -11391856#2 147053824#1 147053824#2 147053824#3 147053824#4 147053824#5 1072269113 1072269112#0 178028203#1 178028203#2 178028204#1 178028204#4 178028204#9 166142947#1 -152839428 679901152#0 72230304#1 461514282#0 461514282#1"/>
    </vehicle>
    <vehicle id="84" depart="50596.65">
        <route edges="40191607#2 -23913526#0 187123053#5 187123053#6 -152839426 -178028204#9 -178028204#4 -178028204#3 -178028203#2 -178028203#1 -1072269112#0"/>
    </vehicle>
    <vehicle id="85" depart="50600.19">
        <route edges="1093549489#1 1093549550#1 146511475#0 -147053824#2 -147053824#1 -11389403#3 -11389403#2 -11389403#1 E0"/>
    </vehicle>
    <vehicle id="86" depart="50603.72">
        <route edges="318210355 318210354#0 -679901152#1 -45875465 -152839426 -178028204#9 -178028204#4 -178028204#3 -178028203#2 -178028203#1 -1072269112#0 -1072269113 -147053824#5 -147053824#4 -147053824#3 -147053824#2 -147053824#1 -11389403#3 -11389403#2 -11389403#1 E0"/>
    </vehicle>
    <vehicle id="87" depart="50607.25">
        <route edges="140964910#2 140964910#3 147053824#5 1072269113 1072269112#0 178028203#1 178028203#2 178028204#1 178028204#4 178028204#9 166142947#1 -152839428 679901152#0 72230304#1 461514282#0 461514282#1"/>
    </vehicle>
    <vehicle id="88" depart="50610.78">
        <route edges="140964924 -178028204#4 -178028204#3 -178028203#2 -178028203#1 -1072269112#0 -1072269113 -147053824#5 -147053824#4 -147053824#3 -147053824#2 -147053824#1 11391856#2 11391856#3 19585417#0"/>
    </vehicle>
    <vehicle id="89" depart="50614.31">
        <route edges="-1093549550#0 1093549489#1 1093549550#1 146511475#0 -147053824#2 -147053824#1 -11389403#3 -11389403#2 -11389403#1 E0"/>
    </vehicle>
    <vehicle id="90" depart="50617.84">
        <route edges="822124413#0 822124413#1 318210358 318210355 318210354#0 -679901152#1 -45875465 -152839426 -178028204#9 -178028204#4 -178028204#3 -178028203#2 -178028203#1 -1072269112#0 -1072269113 -147053824#5 -147053824#4 -147053824#3 -147053824#2 -147053824#1 -11389403#3 -11389403#2 -11389403#1 E0"/>
    </vehicle>
    <vehicle id="91" depart="50621.38">
        <route edges="-23913522#0 -11391856#2 147053824#1 147053824#2 147053824#3 147053824#4 147053824#5 1072269113 1072269112#0 178028203#1 178028203#2 178028204#1 178028204#4 178028204#9 166142947#1 -152839428 679901152#0 72230304#1 461514282#0 461514282#1"/>
    </vehicle>
    <vehicle id="92" depart="50624.91">
        <route edges="19585417#0 140964927#2 140964927#3 140964927#4 147053824#4 147053824#5 1072269113 1072269112#0 178028203#1 178028203#2 178028204#1 178028204#4 178028204#9 166142947#1 -152839428 679901152#0 72230304#1 461514282#0 461514282#1"/>
    </vehicle>
    <vehicle id="93" depart="50628.44">
        <route edges="822124413#0 822124413#1 318210358 318210355 318210354#0 -679901152#1 -45875465 -152839426 -178028204#9 -178028204#4 -178028204#3 -178028203#2 -178028203#1 -1072269112#0 -1072269113 -147053824#5 -147053824#4 -140964927#4 23913523#4 23913523#5"/>
    </vehicle>
    <vehicle id="94" depart="50631.97">
        <route edges="1093549489#1 1093549550#1 146511475#0 -147053824#2 -147053824#1 -11389403#3 -11389403#2 -11389403#1 E0"/>
    </vehicle>
    <vehicle id="95" depart="50635.50">
        <route edges="822124413#0 822124413#1 318210358 318210355 318210354#0 -679901152#1 -45875465 -152839426 -178028204#9 -178028204#4 -178028204#3 -178028203#2 -178028203#1 -1072269112#0 -1072269113 -147053824#5 -147053824#4 -147053824#3 -147053824#2 -147053824#1 11391856#2 -11391856#2 147053824#1"/>
    </vehicle>
    <vehicle id="96" depart="50639.03">
        <route edges="822124413#0 822124413#1 318210358 318210355 318210354#0 -679901152#1 -45875465 -152839426 -178028204#9 -178028204#4 -178028204#3 -178028203#2 -178028203#1 -1072269112#0 -1072269113 -147053824#5 -147053824#4 -147053824#3 -147053824#2 -147053824#1"/>
    </vehicle>
    <vehicle id="97" depart="50642.57">
        <route edges="822124413#0 822124413#1 318210358 318210355 318210354#0 -679901152#1 -45875465 -152839426 -178028204#9 -178028204#4 -178028204#3 -178028203#2 -178028203#1 -1072269112#0 -1072269113 -147053824#5 -140964910#3 -140964910#2"/>
    </vehicle>
    <vehicle id="98" depart="50646.10">
        <route edges="-19585417#1 140964927#2 140964927#3 140964927#4 147053824#4 147053824#5 1072269113 1072269112#0 178028203#1 178028203#2 178028204#1 178028204#4 178028204#9 166142947#1 -152839428 679901152#0 72230304#1 461514282#0 461514282#1"/>
    </vehicle>
    <vehicle id="99" depart="50649.63">