<?xml version="1.0" encoding="UTF-8"?>

<!-- generated on 2023-06-08 15:35:02.162799 by routeSampler.py v1_17_0+0865-a39499a3569
<configuration>
    <route-files value="osm.passenger.rou.xml"/>
    <turn-ratio-files value="turn_ratio.xml"/>
    <edgedata-files value="edge_data_cars.xml"/>
    <turn-ratio-attribute value="ratio"/>
    <output-file value="samplertrips.rou.xml"/>
    <mismatch-output value="mismatch.xml"/>
</configuration>
-->

<routes xmlns:xsi="http://www.w3.org/2001/XMLSchema-instance" xsi:noNamespaceSchemaLocation="http://sumo.dlr.de/xsd/routes_file.xsd">
<!-- begin="50300.0" end="54100.0" -->
    <vehicle id="0" depart="50300.00">
        <route edges="-23913525#1 -23913525#0 -178028204#4 -178028204#3 -178028204#1 -178028203#2 -178028203#1 -1072269112#0 -1072269113 -147053824#5 -140964910#3 -140964910#2 -140964910#1"/>
    </vehicle>
    <vehicle id="1" depart="50301.38">
        <route edges="178028204#1 178028204#3 -23788323 -1066222296#0 -137534616 25771472#0 -140964907#3 -140964907#2 -140964907#1 -147053824#5 -147053824#4 -147053824#3 -147053824#2 -147053824#1"/>
    </vehicle>
    <vehicle id="2" depart="50302.76">
        <route edges="187123053#3 187123053#4 187123053#5 187123053#6 -152839426 -166142947#1 -178028204#9 -178028204#4 -178028204#3 -178028204#1 -178028203#2 -178028203#1 -1072269112#0 -1072269113 -147053824#5 -147053824#4 -140964927#4 -140964927#3 -140964927#2 -19585417#0"/>
    </vehicle>
    <vehicle id="3" depart="50304.13">
        <route edges="-149611526#0 -166142951#1 -166142951#0 -1066221582 -1066221787 -1066222296#1 -1066222296#0 -137534616 25771472#0 -140964907#3 -140964907#2 -140964907#1 -147053824#5 -147053824#4 -147053824#3 -147053824#2"/>
    </vehicle>
    <vehicle id="4" depart="50305.51">
        <route edges="147053824#1 147053824#2 147053824#3 -140964927#4 23913523#4 23913523#5"/>
    </vehicle>
    <vehicle id="5" depart="50306.89">
        <route edges="-178028204#9 -140964924 -1066222296#1 -1066222296#0"/>
    </vehicle>
    <vehicle id="6" depart="50308.27">
        <route edges="146511475#0 147053824#3 147053824#4 147053824#5 1072269113 1072269112#0 178028203#1 178028203#2 149611534#0 149611534#1"/>
    </vehicle>
    <vehicle id="7" depart="50309.64">
        <route edges="20553068#3 -178028204#9 -178028204#4 -178028204#3 -178028204#1 -178028203#2 -178028203#1 -1072269112#0 -1072269113 -147053824#5 -147053824#4 -140964927#4 -140964927#3 -140964927#2 -19585417#0"/>
    </vehicle>
    <vehicle id="8" depart="50311.02">
        <route edges="23913523#5 19589130#3 19589130#4 -1072269113 -147053824#5 -147053824#4 -147053824#3 -147053824#2 -147053824#1 -11389403#3 -11389403#2"/>
    </vehicle>
    <vehicle id="9" depart="50312.40">
        <route edges="-140964907#1 1072269113 1072269112#0 178028203#1 178028203#2 178028204#1 178028204#3 178028204#4"/>
    </vehicle>
    <vehicle id="10" depart="50313.78">
        <route edges="-E0 11389403#1 11389403#2 11389403#3 147053824#1"/>
    </vehicle>
    <vehicle id="11" depart="50315.16">
        <route edges="-140964907#3 -140964907#2 -140964907#1 -147053824#5 -147053824#4 -147053824#3 -146511475#0 -1093549550#1 -1093549550#0"/>
    </vehicle>
    <vehicle id="12" depart="50316.53">
        <route edges="-187123053#3 140964905#8 -23913525#1 -23913525#0 -178028204#4 -178028204#3 -178028204#1"/>
    </vehicle>
    <vehicle id="13" depart="50317.91">
        <route edges="25771472#2 -35554226#3 -35554226#2 -35554226#1 147053824#4 147053824#5 1072269113 1072269112#0 178028203#1 178028203#2 178028204#1 178028204#3 178028204#4 178028204#9 166142947#1"/>
    </vehicle>
    <vehicle id="14" depart="50319.29">
        <route edges="-178028204#4 -23788323 1066222296#1 1066221786 1066221582 166142951#0 166142951#1 149611526#0 149611526#1 1102336903#0 40191606 414563781 318210357#0 40191607#2 40191607#3 40191607#4 40191607#5"/>
    </vehicle>
    <vehicle id="15" depart="50320.67">
        <route edges="414563781 318210357#0 -679901152#1 -45875465 152839428 -152839426 -166142947#1 -178028204#9 -178028204#4 -178028204#3 -178028204#1 -178028203#2 -178028203#1 -1072269112#0"/>
    </vehicle>
    <vehicle id="16" depart="50322.04">
        <route edges="11389403#2 11389403#3 147053824#1 147053824#2 147053824#3 -140964927#4 -140964927#3 -140964927#2 -19585417#0"/>
    </vehicle>
    <vehicle id="17" depart="50323.42">
        <route edges="148803147#2 148803147#3 1093549448#2 20553444 -35554229#1 -35554229#0 -25771472#2 -25771472#1 -25771472#0 137534616 1066222296#0 1066222296#1 1066221786 1066221582 166142951#0 166142951#1 149611526#0 149611526#1 1102336903#0 40191606 414563781 318210357#0 -679901152#1 -45875465 152839428 -152839426"/>
    </vehicle>
    <vehicle id="18" depart="50324.80">
        <route edges="11389403#2 11389403#3 147053824#1 147053824#2 147053824#3 147053824#4 147053824#5"/>
    </vehicle>
    <vehicle id="19" depart="50326.18">
        <route edges="-23913523#5 -23913523#4 140964927#4 147053824#4 147053824#5 1072269113 1072269112#0 178028203#1 178028203#2 178028204#1 178028204#3 178028204#4 178028204#9 166142947#1 152839426"/>
    </vehicle>
    <vehicle id="20" depart="50327.56">
        <route edges="23913523#3 140964927#4 147053824#4 147053824#5 1072269113 1072269112#0 178028203#1 178028203#2 178028204#1 178028204#3 -23788323"/>
    </vehicle>
    <vehicle id="21" depart="50328.93">
        <route edges="-35554226#1 147053824#4 147053824#5 1072269113 1072269112#0 20554351 20554168"/>
    </vehicle>
    <vehicle id="22" depart="50330.31">
        <route edges="-178028204#4 -178028204#3 -178028204#1 -178028203#2 -178028203#1 -1072269112#0 -1072269113 -147053824#5 -147053824#4 -147053824#3 -147053824#2 -147053824#1"/>
    </vehicle>
    <vehicle id="23" depart="50331.69">
        <route edges="-166142951#1 -166142951#0 -1066221582 -1066221787 -1066222296#1 23788323 -178028204#3 -178028204#1 149611534#0"/>
    </vehicle>
    <vehicle id="24" depart="50333.07">
        <route edges="23913523#3 140964927#4 147053824#4 147053824#5 1072269113 1072269112#0 178028203#1 178028203#2 178028204#1 178028204#3 178028204#4 178028204#9 166142947#1 152839426"/>
    </vehicle>
    <vehicle id="25" depart="50334.45">
        <route edges="1093549489#1 1093549550#1 146511475#0 147053824#3 147053824#4 147053824#5 140964907#1"/>
    </vehicle>
    <vehicle id="26" depart="50335.82">
        <route edges="1093549550#1 146511475#0 147053824#3 147053824#4 147053824#5 140964907#1"/>
    </vehicle>
    <vehicle id="27" depart="50337.20">
        <route edges="23913523#3 140964927#4 -147053824#3 -147053824#2 -147053824#1 -11389403#3 -11389403#2"/>
    </vehicle>
    <vehicle id="28" depart="50338.58">
        <route edges="140964910#2 140964910#3 147053824#5 1072269113 1072269112#0 178028203#1 178028203#2 178028204#1 178028204#3"/>
    </vehicle>
    <vehicle id="29" depart="50339.96">
        <route edges="-E0 11389403#1 11389403#2 11389403#3 147053824#1 147053824#2 147053824#3 147053824#4 147053824#5 1072269113 -19589130#4 -19589130#3 -23913523#5"/>
    </vehicle>
    <vehicle id="30" depart="50341.33">
        <route edges="152839428 -152839426 -166142947#1 -178028204#9 -178028204#4 -178028204#3 -178028204#1 -178028203#2 -178028203#1 -1072269112#0 -1072269113 -147053824#5 -140964910#3 -140964910#2"/>
    </vehicle>
    <vehicle id="31" depart="50342.71">
        <route edges="20553068#0 20553068#1 20553068#2 20553068#3 166142947#1 152839426 -152839428 45875465 679901152#0 40191607#2 40191607#3 40191607#4"/>
    </vehicle>
    <vehicle id="32" depart="50344.09">
        <route edges="-152839426 -166142947#1 -178028204#9 -178028204#4 -178028204#3 -178028204#1 -178028203#2 -178028203#1 -1072269112#0 -1072269113 -147053824#5 -147053824#4 -147053824#3"/>
    </vehicle>
    <vehicle id="33" depart="50345.47">
        <route edges="187123053#5 187123053#6 -152839426 -166142947#1 -178028204#9 -178028204#4 -178028204#3 -178028204#1 -178028203#2 -178028203#1 -1072269112#0 -1072269113 -147053824#5 -147053824#4 35554226#1 35554226#2"/>
    </vehicle>
    <vehicle id="34" depart="50346.85">
        <route edges="178028204#3 -23788323 -1066222296#0 -137534616 25771472#0 -140964907#3 -140964907#2 -140964907#1 -147053824#5 -147053824#4 -140964927#4 -140964927#3 -140964927#2 -19585417#0"/>
    </vehicle>
    <vehicle id="35" depart="50348.22">
        <route edges="-19585417#1 140964927#2 140964927#3 140964927#4 147053824#4 147053824#5 1072269113 1072269112#0 178028203#1 178028203#2 178028204#1 178028204#3 178028204#4 178028204#9 -20553068#3 -20553068#2 -20553068#1"/>
    </vehicle>
    <vehicle id="36" depart="50349.60">
        <route edges="-23913523#5 -23913523#4 140964927#4 147053824#4 147053824#5 1072269113 1072269112#0 178028203#1 178028203#2 178028204#1 178028204#3 -23788323"/>
    </vehicle>
    <vehicle id="37" depart="50350.98">
        <route edges="11389403#2 11389403#3 147053824#1 147053824#2 147053824#3 147053824#4 147053824#5 1072269113 1072269112#0 140964915#0 140964915#1 140964915#2 137534616 -149611534#1 -149611534#0"/>
    </vehicle>
    <vehicle id="38" depart="50352.36">
        <route edges="-23925124#2 -23925124#1 -23925124#0 -20553015#1 -20553015#0 20553068#1 20553068#2 20553068#3 -178028204#9 -178028204#4 -178028204#3 -178028204#1 -178028203#2 -178028203#1 20554351"/>
    </vehicle>
    <vehicle id="39" depart="50353.73">
        <route edges="23913523#3 140964927#4 147053824#4 -140964910#3 -140964910#2 -140964910#1"/>
    </vehicle>
    <vehicle id="40" depart="50355.11">
        <route edges="-166142951#1 -166142951#0 -1066221582 -1066221787 -1066222296#1 23788323 -178028204#3 -178028204#1 -178028203#2 -178028203#1 140964915#0 140964915#1 140964915#2"/>
    </vehicle>
    <vehicle id="41" depart="50356.49">
        <route edges="178028204#4 -140964924 -1066222296#1 -1066222296#0 -137534616 25771472#0"/>
    </vehicle>
    <vehicle id="42" depart="50357.87">
        <route edges="148803147#1 148803147#2 148803147#3 1093549448#2 1093549489#1 1093549550#1 146511475#0 147053824#3 147053824#4 147053824#5 140964907#1 140964907#2 140964907#3"/>
    </vehicle>
    <vehicle id="43" depart="50359.25">
        <route edges="146511475#0 147053824#3 -140964927#4 -140964927#3 -140964927#2 19585417#1"/>
    </vehicle>
    <vehicle id="44" depart="50360.62">
        <route edges="24152326#0 24152326#1 -20553015#1 -20553015#0 20553068#1 20553068#2 20553068#3 -178028204#9 -178028204#4 -178028204#3 -178028204#1 -178028203#2 -178028203#1 20554351 20554168"/>
    </vehicle>
    <vehicle id="45" depart="50362.00">
        <route edges="-23913525#1 -23913525#0 -178028204#4 -178028204#3 -178028204#1 -178028203#2 -178028203#1 -1072269112#0 -1072269113 -147053824#5 -140964910#3 -140964910#2"/>
    </vehicle>
    <vehicle id="46" depart="50363.38">
        <route edges="-178028203#2 -178028203#1 140964915#0 140964915#1 140964915#2 137534616 1066222296#0 1066222296#1 1066221786 1066221582 166142951#0 166142951#1 149611526#0"/>
    </vehicle>
    <vehicle id="47" depart="50364.76">
        <route edges="-147053824#5 -140964910#3 -140964910#2 -140964910#1 -25771472#1 -25771472#0 137534616 1066222296#0 1066222296#1 1066221786 1066221582 166142951#0 166142951#1 149611526#0 149611526#1 1102336903#0 40191606 414563781 318210357#0 72230304#1 461514282#0"/>
    </vehicle>
    <vehicle id="48" depart="50366.13">
        <route edges="23913523#5 19589130#3 19589130#4 -1072269113 -147053824#5 -147053824#4 -147053824#3 -147053824#2 -147053824#1"/>
    </vehicle>
    <vehicle id="49" depart="50367.51">
        <route edges="-23913525#0 -178028204#4 -178028204#3 -178028204#1 -178028203#2 -178028203#1 -1072269112#0 -1072269113 -147053824#5 -147053824#4 -147053824#3 -147053824#2 -147053824#1"/>
    </vehicle>
    <vehicle id="50" depart="50368.89">
        <route edges="-149611511#1 -149611511#0 -166142951#1 -166142951#0 -1066221582 -1066221787 -1066222296#1 23788323 -178028204#3 -178028204#1 149611534#0"/>
    </vehicle>
    <vehicle id="51" depart="50370.27">
        <route edges="-25771472#2 140964910#1 140964910#2 140964910#3 -147053824#4 -147053824#3 -147053824#2 -147053824#1 -11389403#3"/>
    </vehicle>
    <vehicle id="52" depart="50371.65">
        <route edges="318210357#0 -679901152#1 -45875465 152839428 -152839426 -166142947#1 -178028204#9 -178028204#4 -178028204#3 -178028204#1 -178028203#2 -178028203#1 -1072269112#0 -1072269113 -147053824#5 -147053824#4 35554226#1 35554226#2 35554226#3"/>
    </vehicle>
    <vehicle id="53" depart="50373.02">
        <route edges="146511475#0 147053824#3 147053824#4 147053824#5 1072269113 1072269112#0 20554351 20554168"/>
    </vehicle>
    <vehicle id="54" depart="50374.40">
        <route edges="23913523#2 23913523#3 140964927#4 147053824#4 147053824#5 1072269113 1072269112#0 178028203#1 178028203#2 178028204#1 178028204#3 178028204#4 178028204#9 166142947#1 152839426"/>
    </vehicle>
    <vehicle id="55" depart="50375.78">
        <route edges="148803147#0 148803147#1 148803147#2 148803147#3 1093549448#2 1093549489#1 1093549550#1 146511475#0 147053824#3 147053824#4 147053824#5 1072269113 1072269112#0 140964915#0 140964915#1 140964915#2"/>
    </vehicle>
    <vehicle id="56" depart="50377.16">
        <route edges="318210355 318210354#0 -679901152#1 -45875465 152839428 -152839426 -166142947#1 -178028204#9 -178028204#4 -178028204#3 -178028204#1 -178028203#2 -178028203#1 -1072269112#0 -19589130#4 -19589130#3"/>
    </vehicle>
    <vehicle id="57" depart="50378.54">
        <route edges="23925119#1 23925119#3 40191606 414563781 318210357#0 -679901152#1 -45875465 152839428 -152839426 -166142947#1 -178028204#9 -178028204#4 -178028204#3 -178028204#1 -178028203#2 -178028203#1 -1072269112#0 -1072269113 -147053824#5 -147053824#4 -147053824#3 -147053824#2"/>
    </vehicle>
    <vehicle id="58" depart="50379.91">
        <route edges="20554168 178028206#1 178028206#2 -178028203#2 -178028203#1 -1072269112#0 -1072269113 -147053824#5 -147053824#4 35554226#1 35554226#2"/>
    </vehicle>
    <vehicle id="59" depart="50381.29">
        <route edges="140964927#4 147053824#4 147053824#5 1072269113 1072269112#0 140964915#0 140964915#1 140964915#2 137534616 1066222296#0 23788323 -178028204#3"/>
    </vehicle>
    <vehicle id="60" depart="50382.67">
        <route edges="1093549448#2 1093549489#1 1093549550#1 146511475#0 147053824#3 147053824#4 -140964910#3"/>
    </vehicle>
    <vehicle id="61" depart="50384.05">
        <route edges="318210355 318210354#0 -679901152#1 -45875465 152839428 24152326#0 24152326#1 23925124#0 23925124#1 23925124#2 149611511#0 149611511#1"/>
    </vehicle>
    <vehicle id="62" depart="50385.42">
        <route edges="-1072269112#0 -1072269113 -147053824#5 -147053824#4 -147053824#3 -147053824#2 -147053824#1"/>
    </vehicle>
    <vehicle id="63" depart="50386.80">
        <route edges="-11391856#3 -11391856#2 147053824#1 147053824#2 -146511475#0 -1093549550#1 -1093549550#0 -1093549448#2"/>
    </vehicle>
    <vehicle id="64" depart="50388.18">
        <route edges="23913523#0 23913523#2 23913523#3 140964927#4 147053824#4 147053824#5 1072269113 1072269112#0 20554351 20554168 178028206#1 178028206#2"/>
    </vehicle>
    <vehicle id="65" depart="50389.56">
        <route edges="-152839426 -166142947#1 -20553068#3 -20553068#2 -20553068#1 -20553068#0 -1066221582 -1066221787 -1066222296#1 -1066222296#0 -137534616 25771472#0"/>
    </vehicle>
    <vehicle id="66" depart="50390.94">
        <route edges="-35554226#3 -35554226#2 -35554226#1 147053824#4 147053824#5 1072269113 1072269112#0 178028203#1 178028203#2 178028204#1 178028204#3 178028204#4 178028204#9 166142947#1 152839426 -187123053#6 -187123053#5"/>
    </vehicle>
    <vehicle id="67" depart="50392.31">
        <route edges="-149611526#0 -166142951#1 -166142951#0 -1066221582 -1066221787 -1066222296#1 23788323 -178028204#3 -178028204#1 -178028203#2 -178028203#1 20554351"/>
    </vehicle>
    <vehicle id="68" depart="50393.69">
        <route edges="25771472#1 140964910#1 140964910#2 140964910#3 147053824#5 1072269113 1072269112#0 178028203#1 178028203#2 178028204#1"/>
    </vehicle>
    <vehicle id="69" depart="50395.07">
        <route edges="140964924 -178028204#4 -178028204#3 -178028204#1 -178028203#2 -178028203#1 -1072269112#0 -19589130#4 -19589130#3 -19589130#2 -19585417#1"/>
    </vehicle>
    <vehicle id="70" depart="50396.45">
        <route edges="187123053#5 187123053#6 -152839426 -166142947#1 -178028204#9 -178028204#4 -178028204#3 -178028204#1 -178028203#2 -178028203#1 -1072269112#0 -1072269113 -147053824#5 -147053824#4 -147053824#3 -147053824#2 -147053824#1 -11389403#3 -11389403#2 -11389403#1 E0"/>
    </vehicle>
    <vehicle id="71" depart="50397.82">
        <route edges="-E0 11389403#1 11389403#2 11389403#3 147053824#1"/>
    </vehicle>
    <vehicle id="72" depart="50399.20">
        <route edges="153021549#0 153021549#1 -149611526#1 -149611526#0 -166142951#1 -166142951#0 -1066221582 -1066221787 -1066222296#1 -1066222296#0 -137534616 25771472#0 -140964907#3 -140964907#2 -140964907#1 1072269113 -19589130#4 -19589130#3 -19589130#2"/>
    </vehicle>
    <vehicle id="73" depart="50400.58">
        <route edges="318210355 318210354#0 -679901152#1 -45875465 152839428 -152839426 -166142947#1 -178028204#9 -178028204#4 -178028204#3 -178028204#1 -178028203#2 -178028203#1 -1072269112#0 -1072269113"/>
    </vehicle>
    <vehicle id="74" depart="50401.96">
        <route edges="147053824#4 147053824#5 140964907#1 140964907#2 140964907#3 -25771472#0"/>
    </vehicle>
    <vehicle id="75" depart="50403.34">
        <route edges="-19585417#0 -11391856#3 -11391856#2 147053824#1 147053824#2 147053824#3 147053824#4 147053824#5 1072269113 1072269112#0 20554351 20554168 178028206#1 178028206#2"/>
    </vehicle>
    <vehicle id="76" depart="50404.71">
        <route edges="-35554229#0 -35554226#3 -35554226#2 -35554226#1 147053824#4 147053824#5 1072269113 1072269112#0 178028203#1 178028203#2 178028204#1 178028204#3 -23788323"/>
    </vehicle>
    <vehicle id="77" depart="50406.09">
        <route edges="140964927#3 140964927#4 147053824#4 147053824#5 140964907#1 140964907#2 140964907#3 -25771472#0"/>
    </vehicle>
    <vehicle id="78" depart="50407.47">
        <route edges="23913523#0 23913523#2 23913523#3 140964927#4 147053824#4 147053824#5 1072269113 1072269112#0 20554351 20554168"/>
    </vehicle>
    <vehicle id="79" depart="50408.85">
        <route edges="-178028204#9 -140964924 -1066222296#1 -1066222296#0 -137534616"/>
    </vehicle>
    <vehicle id="80" depart="50410.22">
        <route edges="-20553015#1 -20553015#0 20553068#1 20553068#2 20553068#3 -178028204#9 -178028204#4 -178028204#3 -178028204#1 -178028203#2 -178028203#1 -1072269112#0 -19589130#4 -19589130#3 -19589130#2"/>
    </vehicle>
    <vehicle id="81" depart="50411.60">
        <route edges="20554168 178028206#1 178028206#2 -178028203#2 -178028203#1 -1072269112#0 -1072269113 -147053824#5 -147053824#4 -147053824#3 -147053824#2 -147053824#1 -11389403#3 -11389403#2 -11389403#1 E0"/>
    </vehicle>
    <vehicle id="82" depart="50412.98">
        <route edges="1093549550#1 146511475#0 147053824#3 147053824#4 147053824#5 1072269113 1072269112#0 178028203#1 178028203#2 178028204#1 178028204#3 178028204#4 178028204#9"/>
    </vehicle>
    <vehicle id="83" depart="50414.36">
        <route edges="-149611511#1 -149611511#0 -166142951#1 -166142951#0 -1066221582 -1066221787 -1066222296#1 -1066222296#0 -137534616 25771472#0 -140964907#3 -140964907#2 -140964907#1 -147053824#5 -147053824#4"/>
    </vehicle>
    <vehicle id="84" depart="50415.74">
        <route edges="414563781 318210357#0 -679901152#1 -45875465 152839428 -152839426 -166142947#1 -178028204#9 -178028204#4 -178028204#3 -178028204#1 -178028203#2 -178028203#1 -1072269112#0 -1072269113 -147053824#5 -147053824#4 -147053824#3 -147053824#2 -147053824#1"/>
    </vehicle>
    <vehicle id="85" depart="50417.11">
        <route edges="1093549550#1 146511475#0 147053824#3 147053824#4 147053824#5 1072269113 1072269112#0 178028203#1 178028203#2 149611534#0 149611534#1"/>
    </vehicle>
    <vehicle id="86" depart="50418.49">
        <route edges="-19585417#0 -11391856#3 -11391856#2 147053824#1 147053824#2 -146511475#0 -1093549550#1 -1093549550#0 -1093549448#2"/>
    </vehicle>
    <vehicle id="87" depart="50419.87">
        <route edges="11389403#2 11389403#3 147053824#1"/>
    </vehicle>
    <vehicle id="88" depart="50421.25">
        <route edges="-1066221787 -1066222296#1 -1066222296#0 -137534616 25771472#0 -140964907#3 -140964907#2 -140964907#1 -147053824#5 -147053824#4 -140964927#4 -140964927#3 -140964927#2 -19585417#0"/>
    </vehicle>
    <vehicle id="89" depart="50422.63">
        <route edges="822124413#1 318210358 318210355 318210354#0 -679901152#1 -45875465 152839428 -152839426 -166142947#1 -178028204#9 -178028204#4 -178028204#3 -178028204#1 -178028203#2 -178028203#1 -1072269112#0 -1072269113 -147053824#5 -147053824#4 -147053824#3 -147053824#2 -147053824#1"/>
    </vehicle>
    <vehicle id="90" depart="50424.00">
        <route edges="318210355 318210354#0 -679901152#1 -45875465 152839428 -152839426 -166142947#1 -178028204#9 -178028204#4 -178028204#3"/>
    </vehicle>
    <vehicle id="91" depart="50425.38">
        <route edges="140964905#5 187123053#3 187123053#4 187123053#5 187123053#6 -152839426 -166142947#1 -178028204#9 -178028204#4 -178028204#3 -178028204#1 -178028203#2 -178028203#1 20554351 20554168"/>
    </vehicle>
    <vehicle id="92" depart="50426.76">
        <route edges="-23925122#1 -23925119#1 23925124#1 23925124#2 -166142951#1 -166142951#0 -1066221582 -1066221787 -1066222296#1 -1066222296#0 -137534616 25771472#0 -140964907#3 -140964907#2 -140964907#1 -147053824#5 -147053824#4 -147053824#3 -147053824#2 -147053824#1 -11389403#3 -11389403#2 -11389403#1 E0"/>
    </vehicle>
    <vehicle id="93" depart="50428.14">
        <route edges="-E0 11389403#1 11389403#2 11389403#3 147053824#1"/>
    </vehicle>
    <vehicle id="94" depart="50429.51">
        <route edges="-1066222296#0 -137534616 25771472#0 -140964907#3 -140964907#2 -140964907#1 -147053824#5 -147053824#4 -147053824#3 -147053824#2 -147053824#1 -11389403#3"/>
    </vehicle>
    <vehicle id="95" depart="50430.89">
        <route edges="-23913525#1 -23913525#0 -178028204#4 -178028204#3 -178028204#1 -178028203#2 -178028203#1 -1072269112#0 -1072269113 -147053824#5 -147053824#4 -147053824#3 -147053824#2"/>
    </vehicle>
    <vehicle id="96" depart="50432.27">
        <route edges="318210355 318210354#0 -679901152#1 -45875465 152839428 24152326#0 24152326#1 23925124#0 23925124#1 23925124#2 -166142951#1 -166142951#0 -1066221582 -1066221787 -1066222296#1 -1066222296#0 -137534616 25771472#0 25771472#1 25771472#2 -35554226#3"/>
    </vehicle>
    <vehicle id="97" depart="50433.65">
        <route edges="-166142951#0 -1066221582 -1066221787 -1066222296#1 -1066222296#0 -137534616 25771472#0 -140964907#3 -140964907#2 -140964907#1 -147053824#5 -147053824#4 35554226#1 35554226#2"/>
    </vehicle>
    <vehicle id="98" depart="50435.03">
        <route edges="-23913525#1 -23913525#0 -178028204#4 -23788323"/>
    </vehicle>
    <vehicle id="99" depart="50436.40">
        <route edges="-140964907#3 -140964907#2 -140964907#1 1072269113 1072269112#0 178028203#1 178028203#2 178028204#1 178028204#3 178028204#4 178028204#9 166142947#1 152839426 -152839428 45875465 679901152#0 40191607#2 40191607#3 40191607#4 40191607#5"/>
    </vehicle>
    <vehicle id="100" depart="50437.78">
        <route edges="-23913525#1 -23913525#0 -178028204#4 -178028204#3 -178028204#1 -178028203#2 -178028203#1 -1072269112#0 -1072269113 -147053824#5 -147053824#4 -147053824#3 -147053824#2"/>
    </vehicle>
    <vehicle id="101" depart="50439.16">
        <route edges="-E0 11389403#1 11389403#2 11389403#3 147053824#1"/>
    </vehicle>
    <vehicle id="102" depart="50440.54">
        <route edges="11389403#2 11389403#3 147053824#1 147053824#2 -146511475#0"/>
    </vehicle>
    <vehicle id="103" depart="50441.91">
        <route edges="-147053824#3 -146511475#0 -1093549550#1 -1093549550#0 20553444 -35554229#1 -35554229#0 -25771472#2 -25771472#1 -25771472#0 137534616 1066222296#0 1066222296#1 1066221786 1066221582 166142951#0 166142951#1 149611526#0 149611526#1 1102336903#0 40191606 414563781 318210357#0 72230304#1 461514282#0"/>
    </vehicle>
    <vehicle id="104" depart="50443.29">
        <route edges="-E0 11389403#1 11389403#2 11389403#3 147053824#1"/>
    </vehicle>
    <vehicle id="105" depart="50444.67">
        <route edges="140964924 -178028204#4 -23788323 -1066222296#0 -137534616 25771472#0 -140964907#3"/>
    </vehicle>
    <vehicle id="106" depart="50446.05">
        <route edges="147053824#4 147053824#5 1072269113 1072269112#0 178028203#1"/>
    </vehicle>
    <vehicle id="107" depart="50447.43">
        <route edges="-178028203#1 20554351 20554168 178028206#1 178028206#2 178028204#1 178028204#3 178028204#4 178028204#9 166142947#1 152839426 -152839428 45875465 679901152#0 206889086#1 152839448#0 541676219"/>
    </vehicle>
    <vehicle id="108" depart="50448.80">
        <route edges="-23913523#3 -23913523#2 -23913523#0 -11391856#2 147053824#1 147053824#2 147053824#3 147053824#4 -140964910#3 -140964910#2 -140964910#1 -25771472#1"/>
    </vehicle>
    <vehicle id="109" depart="50450.18">
        <route edges="-23913526#0 187123053#5 187123053#6 -152839426 -166142947#1 -178028204#9 -140964924"/>
    </vehicle>
    <vehicle id="110" depart="50451.56">
        <route edges="140964927#2 140964927#3 140964927#4 147053824#4 147053824#5 1072269113 1072269112#0 178028203#1 178028203#2 178028204#1 178028204#3 178028204#4 178028204#9"/>
    </vehicle>
    <vehicle id="111" depart="50452.94">
        <route edges="140964927#2 140964927#3 140964927#4 147053824#4 -140964910#3 -140964910#2"/>
    </vehicle>
    <vehicle id="112" depart="50454.31">
        <route edges="148803147#0 148803147#1 148803147#2 148803147#3 1093549448#2 1093549489#1 1093549550#1 146511475#0 147053824#3 -140964927#4 -23913523#3"/>
    </vehicle>
    <vehicle id="113" depart="50455.69">
        <route edges="146511475#0 147053824#3 147053824#4 147053824#5 1072269113 1072269112#0 178028203#1 178028203#2 178028204#1 178028204#3 178028204#4 178028204#9 166142947#1 152839426 -152839428 45875465 679901152#0 206889086#1 152839448#0 541676219"/>
    </vehicle>
    <vehicle id="114" depart="50457.07">
        <route edges="-E0 11389403#1 11389403#2 11389403#3 11391856#2 23913522#0"/>
    </vehicle>
    <vehicle id="115" depart="50458.45">
        <route edges="822124413#1 318210358 318210355 318210354#0 -679901152#1 -45875465 152839428 -152839426 -166142947#1 -178028204#9 -178028204#4 -178028204#3 -178028204#1 -178028203#2 -178028203#1 -1072269112#0"/>
    </vehicle>
    <vehicle id="116" depart="50459.83">
        <route edges="-E0 11389403#1 11389403#2 11389403#3 147053824#1 147053824#2 147053824#3 147053824#4 147053824#5 1072269113 1072269112#0 140964915#0 140964915#1 140964915#2 137534616 1066222296#0 1066222296#1 1066221786 1066221582 166142951#0 166142951#1 149611526#0 149611526#1 1102336903#0 -23925119#3 -23925119#1"/>
    </vehicle>
    <vehicle id="117" depart="50461.20">
        <route edges="-140964907#3 -140964907#2 -140964907#1 -147053824#5 -147053824#4 -147053824#3 -146511475#0 -1093549550#1 -1093549550#0 -1093549448#2 -148803147#3"/>
    </vehicle>
    <vehicle id="118" depart="50462.58">
        <route edges="-178028204#1 -178028203#2 -178028203#1 140964915#0 140964915#1 140964915#2 137534616 1066222296#0 1066222296#1 1066221786 1066221582 166142951#0 166142951#1 149611526#0 149611526#1 1102336903#0 40191606 414563781 318210357#0 -679901152#1 -45875465"/>
    </vehicle>
    <vehicle id="119" depart="50463.96">
        <route edges="-19585417#1 140964927#2 140964927#3 140964927#4 -147053824#3 -147053824#2"/>
    </vehicle>
    <vehicle id="120" depart="50465.34">
        <route edges="-149611534#0 -178028203#2 -178028203#1 -1072269112#0 -1072269113 -147053824#5 -147053824#4 -147053824#3 -147053824#2"/>
    </vehicle>
    <vehicle id="121" depart="50466.72">
        <route edges="19589130#4 -1072269113 -147053824#5 -147053824#4 -147053824#3 -147053824#2"/>
    </vehicle>
    <vehicle id="122" depart="50468.09">
        <route edges="23913523#5 19589130#3 19589130#4 -1072269113 -147053824#5 -147053824#4 -147053824#3 -147053824#2 -147053824#1 -11389403#3 -11389403#2 -11389403#1 E0"/>
    </vehicle>
    <vehicle id="123" depart="50469.47">
        <route edges="-1072269112#0 -19589130#4 -19589130#3 -19589130#2 -19585417#1"/>
    </vehicle>
    <vehicle id="124" depart="50470.85">
        <route edges="-E0 11389403#1 11389403#2 11389403#3 147053824#1"/>
    </vehicle>
    <vehicle id="125" depart="50472.23">
        <route edges="318210354#0 -679901152#1 -45875465 152839428 -152839426 -166142947#1 -178028204#9 23913525#0"/>
    </vehicle>
    <vehicle id="126" depart="50473.60">
        <route edges="23913523#2 23913523#3 140964927#4 147053824#4 147053824#5 1072269113 1072269112#0 178028203#1 178028203#2 178028204#1 178028204#3 -23788323"/>
    </vehicle>
    <vehicle id="127" depart="50474.98">
        <route edges="-149611526#0 -166142951#1 -166142951#0 -1066221582 -1066221787 -1066222296#1 -1066222296#0 -137534616 25771472#0 -140964907#3 -140964907#2 -140964907#1 -147053824#5 -147053824#4 -147053824#3 -147053824#2 -147053824#1 -11389403#3 -11389403#2 -11389403#1 E0"/>
    </vehicle>
    <vehicle id="128" depart="50476.36">
        <route edges="318210357#0 -679901152#1 -45875465 152839428 -152839426 -166142947#1 -178028204#9 -178028204#4 -178028204#3 -178028204#1 -178028203#2 -178028203#1 -1072269112#0 -1072269113 -147053824#5 -147053824#4 -140964927#4 23913523#4 23913523#5"/>
    </vehicle>
    <vehicle id="129" depart="50477.74">