<?xml version="1.0" encoding="UTF-8"?>

<additional xmlns:xsi="http://www.w3.org/2001/XMLSchema-instance" xsi:noNamespaceSchemaLocation="http://sumo.dlr.de/xsd/additional_file.xsd">
    <tlLogic id="clusterJ1_J2_joined" type="static" programID="1" offset="0">
        <phase duration="35" state="grGGG"/>
        <phase duration="3" state="yrGGG"/>
        <phase duration="65" state="rgGGG"/>
        <phase duration="3" state="ryGGG"/>
    </tlLogic>
</additional>
