<?xml version="1.0" encoding="UTF-8"?>

<!-- generated on 2023-06-02 14:22:46.555096 by randomTrips.py v1_17_0+0611-19e794c0a97
<configuration>
    <net-file value="net.net.xml.gz"/>
    <route-file value="osm.bicycle.rou.xml"/>
    <prefix value="bike"/>
    <trip-attributes value="departLane=&quot;best&quot;"/>
    <fringe-start-attributes value="departSpeed=&quot;max&quot;"/>
    <begin value="50400.0"/>
    <end value="54000.0"/>
    <length value="True"/>
    <lanes value="True"/>
    <fringe-factor value="10"/>
    <allow-fringe.min-length value="1000.0"/>
    <min-distance value="8000.0"/>
    <vclass value="bicycle"/>
    <vehicle-class value="bicycle"/>
    <validate value="True"/>
    <period value="6.0"/>
</configuration>
-->

<!-- generated on 2023-06-02 14:22:46 by Eclipse SUMO duarouter Version v1_17_0+0611-19e794c0a97
<configuration xmlns:xsi="http://www.w3.org/2001/XMLSchema-instance" xsi:noNamespaceSchemaLocation="http://sumo.dlr.de/xsd/duarouterConfiguration.xsd">

    <input>
        <net-file value="net.net.xml.gz"/>
        <route-files value="trips.trips.xml"/>
    </input>

    <output>
        <output-file value="trips.trips.xml.tmp"/>
        <alternatives-output value="NUL"/>
        <write-trips value="true"/>
    </output>

    <time>
        <begin value="50400.0"/>
        <end value="54000.0"/>
    </time>

    <report>
        <no-warnings value="true"/>
        <ignore-errors value="true"/>
        <no-step-log value="true"/>
    </report>

</configuration>
-->

<routes xmlns:xsi="http://www.w3.org/2001/XMLSchema-instance" xsi:noNamespaceSchemaLocation="http://sumo.dlr.de/xsd/routes_file.xsd"/>
