<?xml version="1.0" encoding="UTF-8"?>

<!-- generated on 2023-05-23 14:37:59 by Eclipse SUMO netedit Version v1_17_0+0224-bd9d1f7a5d5
-->

<additional xmlns:xsi="http://www.w3.org/2001/XMLSchema-instance" xsi:noNamespaceSchemaLocation="http://sumo.dlr.de/xsd/additional_file.xsd">
    <!-- VTypes -->
    <vType id="t_0" vClass="tram" color="red"/>
    <vType id="t_1" vClass="tram" color="yellow"/>
    <vType id="t_2" vClass="delivery" color="cyan"/>
    <vType id="t_3" vClass="bicycle"/>
    <vType id="t_4"/>
</additional>
