<additional>
	<edgeData id="SUMO-Wildau" file="output_Wildau.xml" />
</additional>