<additional>
	<edgeData type="emissions" id="SUMO-Wildau" file="wildau.emissions.xml" />
</additional>