<?xml version="1.0" encoding="UTF-8"?>

<!-- generated on 03/29/21 13:33:25 by Eclipse SUMO netedit Version v1_8_0+1888-60a1ee3ca5
<configuration xmlns:xsi="http://www.w3.org/2001/XMLSchema-instance" xsi:noNamespaceSchemaLocation="http://sumo.dlr.de/xsd/netconvertConfiguration.xsd">

    <input>
        <sumo-net-file value="C:\Users\phart\OneDrive\Desktop\SUMO_Modell\SUMO-finales%20Modell%20(1)\Netzmodell_2\Netzmodell2.net.xml"/>
    </input>

    <output>
        <output-file value="C:\Users\phart\OneDrive\Desktop\SUMO_Modell\SUMO-finales%20Modell%20(1)\Netzmodell_2\Netzmodell2.net.xml"/>
        <output.street-names value="true"/>
    </output>

    <processing>
        <geometry.min-radius.fix.railways value="false"/>
        <geometry.max-grade.fix value="false"/>
        <offset.disable-normalization value="true"/>
        <lefthand value="false"/>
    </processing>

    <junctions>
        <no-internal-links value="false"/>
        <no-turnarounds value="true"/>
        <junctions.corner-detail value="5"/>
        <junctions.limit-turn-speed value="5.5"/>
        <rectangular-lane-cut value="false"/>
    </junctions>

    <pedestrian>
        <walkingareas value="true"/>
    </pedestrian>

    <report>
        <aggregate-warnings value="5"/>
    </report>

</configuration>
-->

<net version="1.9" junctionCornerDetail="5" walkingareas="true" limitTurnSpeed="5.50" xmlns:xsi="http://www.w3.org/2001/XMLSchema-instance" xsi:noNamespaceSchemaLocation="http://sumo.dlr.de/xsd/net_file.xsd">

    <location netOffset="-404104.96,-5795274.77" convBoundary="543.58,0.00,4552.91,6736.69" origBoundary="13.592775,52.299883,13.660918,52.360330" projParameter="+proj=utm +zone=33 +ellps=WGS84 +datum=WGS84 +units=m +no_defs"/>

    <type id="highway.bridleway" priority="1" numLanes="1" speed="2.78" allow="pedestrian" oneway="1" width="2.00"/>
    <type id="highway.bus_guideway" priority="1" numLanes="1" speed="13.89" allow="bus" oneway="1"/>
    <type id="highway.cycleway" priority="1" numLanes="1" speed="8.33" allow="bicycle" oneway="1" width="1.00"/>
    <type id="highway.footway" priority="1" numLanes="1" speed="2.78" allow="pedestrian" oneway="1" width="2.00"/>
    <type id="highway.ford" priority="1" numLanes="1" speed="2.78" allow="army" oneway="1"/>
    <type id="highway.living_street" priority="2" numLanes="1" speed="2.78" disallow="tram rail_urban rail rail_electric rail_fast ship" oneway="1"/>
    <type id="highway.motorway" priority="14" numLanes="2" speed="27.78" allow="private emergency authority army vip passenger hov taxi bus coach delivery truck trailer motorcycle evehicle custom1 custom2" oneway="1"/>
    <type id="highway.motorway_link" priority="9" numLanes="1" speed="16.67" allow="private emergency authority army vip passenger hov taxi bus coach delivery truck trailer motorcycle evehicle custom1 custom2" oneway="1"/>
    <type id="highway.path" priority="1" numLanes="1" speed="2.78" allow="pedestrian bicycle" oneway="1" width="2.00"/>
    <type id="highway.pedestrian" priority="1" numLanes="1" speed="2.78" allow="pedestrian" oneway="1" width="2.00"/>
    <type id="highway.primary" priority="12" numLanes="2" speed="13.89" disallow="pedestrian tram rail_urban rail rail_electric rail_fast ship" oneway="1" sidewalkWidth="-1.00"/>
    <type id="highway.primary_link" priority="7" numLanes="1" speed="13.89" disallow="pedestrian tram rail_urban rail rail_electric rail_fast ship" oneway="1" sidewalkWidth="-1.00"/>
    <type id="highway.raceway" priority="15" numLanes="2" speed="83.33" allow="vip" oneway="1"/>
    <type id="highway.residential" priority="3" numLanes="1" speed="13.89" disallow="pedestrian tram rail_urban rail rail_electric rail_fast ship" oneway="1" sidewalkWidth="-1.00"/>
    <type id="highway.secondary" priority="11" numLanes="1" speed="13.89" disallow="pedestrian tram rail_urban rail rail_electric rail_fast ship" oneway="1" sidewalkWidth="-1.00"/>
    <type id="highway.secondary_link" priority="6" numLanes="1" speed="13.89" disallow="pedestrian tram rail_urban rail rail_electric rail_fast ship" oneway="1" sidewalkWidth="-1.00"/>
    <type id="highway.service" priority="1" numLanes="1" speed="5.56" allow="pedestrian delivery bicycle" oneway="1"/>
    <type id="highway.stairs" priority="1" numLanes="1" speed="1.39" allow="pedestrian" oneway="1" width="2.00"/>
    <type id="highway.step" priority="1" numLanes="1" speed="1.39" allow="pedestrian" oneway="1" width="2.00"/>
    <type id="highway.steps" priority="1" numLanes="1" speed="1.39" allow="pedestrian" oneway="1" width="2.00"/>
    <type id="highway.tertiary" priority="10" numLanes="1" speed="13.89" disallow="pedestrian tram rail_urban rail rail_electric rail_fast ship" oneway="1" sidewalkWidth="-1.00"/>
    <type id="highway.tertiary_link" priority="5" numLanes="1" speed="13.89" disallow="pedestrian tram rail_urban rail rail_electric rail_fast ship" oneway="1" sidewalkWidth="-1.00"/>
    <type id="highway.track" priority="1" numLanes="1" speed="5.56" allow="pedestrian motorcycle moped bicycle" oneway="1"/>
    <type id="highway.trunk" priority="13" numLanes="2" speed="13.89" disallow="pedestrian bicycle tram rail_urban rail rail_electric rail_fast ship" oneway="1"/>
    <type id="highway.trunk_link" priority="8" numLanes="1" speed="13.89" disallow="pedestrian bicycle tram rail_urban rail rail_electric rail_fast ship" oneway="1"/>
    <type id="highway.unclassified" priority="4" numLanes="1" speed="13.89" disallow="pedestrian tram rail_urban rail rail_electric rail_fast ship" oneway="1" sidewalkWidth="-1.00"/>
    <type id="highway.unsurfaced" priority="1" numLanes="1" speed="8.33" disallow="tram rail_urban rail rail_electric rail_fast ship" oneway="1"/>
    <type id="railway.highspeed" priority="21" numLanes="1" speed="69.44" allow="rail_fast" oneway="1"/>
    <type id="railway.light_rail" priority="19" numLanes="1" speed="27.78" allow="rail_urban" oneway="1"/>
    <type id="railway.preserved" priority="16" numLanes="1" speed="27.78" allow="rail" oneway="1"/>
    <type id="railway.rail" priority="20" numLanes="1" speed="44.44" allow="rail" oneway="1"/>
    <type id="railway.subway" priority="18" numLanes="1" speed="27.78" allow="rail_urban" oneway="1"/>
    <type id="railway.tram" priority="17" numLanes="1" speed="13.89" allow="tram" oneway="1"/>

    <edge id=":1226828056_0" function="internal">
        <lane id=":1226828056_0_0" index="0" allow="pedestrian delivery bicycle" speed="3.65" length="4.67" shape="2325.69,2221.38 2325.10,2222.70 2324.37,2223.22 2323.52,2222.96 2322.53,2221.90"/>
    </edge>
    <edge id=":1226828056_w0" function="walkingarea">
        <lane id=":1226828056_w0_0" index="0" allow="pedestrian" speed="1.00" length="8.09" width="3.20" shape="2325.24,2233.41 2327.16,2232.86 2327.27,2221.12 2324.11,2221.64 2324.11,2221.64 2320.95,2222.16 2320.31,2222.43 2318.70,2223.62 2324.44,2231.05 2323.60,2229.41 2322.67,2228.17 2321.58,2227.01 2320.28,2225.60"/>
    </edge>
    <edge id=":1226828058_0" function="internal">
        <lane id=":1226828058_0_0" index="0" disallow="pedestrian tram rail_urban rail rail_electric rail_fast ship" speed="8.34" length="5.00" shape="2213.04,2722.17 2208.08,2721.49"/>
    </edge>
    <edge id=":1226828058_1" function="internal">
        <lane id=":1226828058_1_0" index="0" disallow="pedestrian tram rail_urban rail rail_electric rail_fast ship" speed="8.34" length="5.00" shape="2208.52,2718.32 2213.48,2719.00"/>
    </edge>
    <edge id=":1226828058_c0" function="crossing" crossingEdges="-4911107#1 4911107#1">
        <lane id=":1226828058_c0_0" index="0" allow="pedestrian" speed="1.00" length="6.40" width="4.00" shape="2211.71,2717.15 2210.84,2723.49"/>
    </edge>
    <edge id=":1226828058_w0" function="walkingarea">
        <lane id=":1226828058_w0_0" index="0" allow="pedestrian" speed="1.00" length="3.53" width="4.00" shape="2207.86,2723.08 2207.59,2725.06 2208.78,2726.73 2210.74,2727.12 2212.55,2725.74 2212.82,2723.76 2208.86,2723.21"/>
    </edge>
    <edge id=":1226828058_w1" function="walkingarea">
        <lane id=":1226828058_w1_0" index="0" allow="pedestrian" speed="1.00" length="3.47" width="4.00" shape="2209.73,2716.87 2213.69,2717.42 2213.97,2715.44 2209.01,2714.75 2208.74,2716.74"/>
    </edge>
    <edge id=":1226828064_0" function="internal">
        <lane id=":1226828064_0_0" index="0" allow="pedestrian delivery bicycle" speed="5.56" length="8.25" shape="2359.49,2808.48 2357.33,2807.34 2355.79,2806.68 2354.18,2806.19 2351.80,2805.60"/>
    </edge>
    <edge id=":1226828064_1" function="internal">
        <lane id=":1226828064_1_0" index="0" allow="pedestrian delivery bicycle" speed="5.56" length="9.60" shape="2359.49,2808.48 2357.59,2807.04 2356.43,2805.18 2356.00,2802.90 2356.31,2800.21"/>
    </edge>
    <edge id=":1226828064_2" function="internal">
        <lane id=":1226828064_2_0" index="0" allow="pedestrian delivery bicycle" speed="5.56" length="5.40" shape="2359.43,2800.94 2359.23,2802.52 2359.42,2803.83 2360.02,2804.88 2361.02,2805.66"/>
    </edge>
    <edge id=":1226828064_3" function="internal">
        <lane id=":1226828064_3_0" index="0" allow="pedestrian delivery bicycle" speed="5.56" length="10.23" shape="2359.43,2800.94 2358.41,2803.55 2356.80,2805.20 2354.60,2805.89 2351.80,2805.60"/>
    </edge>
    <edge id=":1226828064_4" function="internal">
        <lane id=":1226828064_4_0" index="0" allow="pedestrian delivery bicycle" speed="5.03" length="5.02" shape="2352.57,2802.50 2353.94,2802.64 2355.02,2802.30 2355.81,2801.49 2356.31,2800.21"/>
    </edge>
    <edge id=":1226828064_5" function="internal">
        <lane id=":1226828064_5_0" index="0" allow="pedestrian delivery bicycle" speed="5.56" length="9.06" shape="2352.57,2802.50 2355.18,2803.15 2356.95,2803.68 2358.64,2804.41 2361.02,2805.66"/>
    </edge>
    <edge id=":1226828064_w0" function="walkingarea">
        <lane id=":1226828064_w0_0" index="0" allow="pedestrian" speed="1.00" length="6.74" width="3.20" shape="2358.73,2809.88 2360.25,2807.07 2360.25,2807.07 2361.78,2804.26 2360.98,2801.30 2357.87,2800.57 2357.87,2800.57 2354.75,2799.84 2352.95,2800.95 2352.19,2804.05 2352.19,2804.05 2351.42,2807.16 2357.26,2809.10 2356.15,2808.56 2355.21,2808.17 2354.23,2807.87 2353.04,2807.56"/>
    </edge>
    <edge id=":1226828066_0" function="internal">
        <lane id=":1226828066_0_0" index="0" allow="pedestrian delivery bicycle" speed="5.11" length="4.93" shape="2369.44,2652.94 2368.11,2653.06 2367.11,2653.57 2366.44,2654.47 2366.10,2655.77"/>
    </edge>
    <edge id=":1226828066_1" function="internal">
        <lane id=":1226828066_1_0" index="0" allow="pedestrian delivery bicycle" speed="5.56" length="9.12" shape="2369.44,2652.94 2366.74,2652.79 2364.90,2652.61 2363.07,2652.27 2360.44,2651.65"/>
    </edge>
    <edge id=":1226828066_2" function="internal">
        <lane id=":1226828066_2_0" index="0" allow="pedestrian delivery bicycle" speed="3.65" length="4.67" shape="2369.44,2652.94 2368.28,2652.08 2367.92,2651.26 2368.37,2650.48 2369.60,2649.74"/>
    </edge>
    <edge id=":1226828066_3" function="internal">
        <lane id=":1226828066_3_0" index="0" allow="pedestrian delivery bicycle" speed="5.56" length="8.52" shape="2361.20,2648.54 2363.66,2649.12 2365.36,2649.43 2367.08,2649.60 2369.60,2649.74"/>
    </edge>
    <edge id=":1226828066_4" function="internal">
        <lane id=":1226828066_4_0" index="0" allow="pedestrian delivery bicycle" speed="5.56" length="9.71" shape="2361.20,2648.54 2363.59,2649.49 2365.21,2651.02 2366.05,2653.11 2366.10,2655.77"/>
    </edge>
    <edge id=":1226828066_5" function="internal">
        <lane id=":1226828066_5_0" index="0" allow="pedestrian delivery bicycle" speed="3.65" length="4.67" shape="2361.20,2648.54 2362.17,2649.60 2362.37,2650.47 2361.80,2651.15 2360.44,2651.65"/>
    </edge>
    <edge id=":1226828066_6" function="internal">
        <lane id=":1226828066_6_0" index="0" allow="pedestrian delivery bicycle" speed="5.26" length="5.01" shape="2362.92,2655.41 2362.90,2654.02 2362.48,2652.93 2361.66,2652.14 2360.44,2651.65"/>
    </edge>
    <edge id=":1226828066_7" function="internal">
        <lane id=":1226828066_7_0" index="0" allow="pedestrian delivery bicycle" speed="5.56" length="9.86" shape="2362.92,2655.41 2363.59,2652.82 2364.93,2651.01 2366.94,2649.98 2369.60,2649.74"/>
    </edge>
    <edge id=":1226828066_8" function="internal">
        <lane id=":1226828066_8_0" index="0" allow="pedestrian delivery bicycle" speed="3.65" length="4.67" shape="2362.92,2655.41 2363.85,2654.31 2364.69,2654.00 2365.44,2654.49 2366.10,2655.77"/>
    </edge>
    <edge id=":1226828066_w0" function="walkingarea">
        <lane id=":1226828066_w0_0" index="0" allow="pedestrian" speed="1.00" length="6.69" width="3.20" shape="2369.36,2654.54 2369.52,2651.34 2369.52,2651.34 2369.69,2648.15 2361.57,2646.98 2360.82,2650.09 2360.82,2650.09 2360.06,2653.20 2361.33,2655.23 2364.51,2655.59 2364.51,2655.59 2367.69,2655.95 2368.90,2654.55 2368.51,2654.66 2368.19,2654.85 2367.95,2655.13 2367.79,2655.50"/>
    </edge>
    <edge id=":1226828068_0" function="internal">
        <lane id=":1226828068_0_0" index="0" allow="pedestrian bicycle" speed="2.78" length="5.95" width="2.00" shape="2146.30,2668.21 2147.12,2666.65 2147.78,2665.64 2148.52,2664.68 2149.62,2663.29"/>
    </edge>
    <edge id=":1226828068_w0" function="walkingarea">
        <lane id=":1226828068_w0_0" index="0" allow="pedestrian" speed="1.00" length="4.76" width="2.00" shape="2151.24,2666.87 2150.98,2664.89 2150.41,2663.90 2148.82,2662.68 2145.41,2667.76 2147.19,2668.66 2150.25,2666.97 2149.44,2667.03 2148.77,2667.14 2148.20,2667.38 2147.68,2667.86"/>
    </edge>
    <edge id=":1226828073_0" function="internal">
        <lane id=":1226828073_0_0" index="0" disallow="pedestrian tram rail_urban rail rail_electric rail_fast ship" speed="13.89" length="8.91" shape="2264.29,2656.51 2263.01,2647.69"/>
    </edge>
    <edge id=":1226828073_1" function="internal">
        <lane id=":1226828073_1_0" index="0" allow="delivery bicycle" speed="7.35" length="4.32" shape="2264.29,2656.51 2264.51,2653.72 2265.31,2652.43"/>
    </edge>
    <edge id=":1226828073_6" function="internal">
        <lane id=":1226828073_6_0" index="0" allow="delivery bicycle" speed="7.35" length="7.48" shape="2265.31,2652.43 2265.83,2651.60 2268.28,2650.13 2271.84,2649.34"/>
    </edge>
    <edge id=":1226828073_2" function="internal">
        <lane id=":1226828073_2_0" index="0" allow="delivery bicycle" speed="5.71" length="6.68" shape="2272.20,2652.52 2270.00,2652.96 2268.49,2653.71 2267.64,2654.78 2267.47,2656.16"/>
    </edge>
    <edge id=":1226828073_3" function="internal">
        <lane id=":1226828073_3_0" index="0" allow="delivery bicycle" speed="7.47" length="11.58" shape="2272.20,2652.52 2268.57,2652.56 2265.84,2651.77 2263.98,2650.15 2263.01,2647.69"/>
    </edge>
    <edge id=":1226828073_4" function="internal">
        <lane id=":1226828073_4_0" index="0" allow="delivery bicycle" speed="5.85" length="6.71" shape="2266.16,2647.11 2266.71,2648.31 2267.84,2649.07 2269.55,2649.42 2271.84,2649.34"/>
    </edge>
    <edge id=":1226828073_5" function="internal">
        <lane id=":1226828073_5_0" index="0" disallow="pedestrian tram rail_urban rail rail_electric rail_fast ship" speed="13.89" length="9.14" shape="2266.16,2647.11 2267.47,2656.16"/>
    </edge>
    <edge id=":1226828073_c0" function="crossing" crossingEdges="120682116#6 -120682116#6">
        <lane id=":1226828073_c0_0" index="0" allow="pedestrian" speed="1.00" length="6.40" width="4.00" shape="2268.84,2654.00 2262.48,2654.70"/>
    </edge>
    <edge id=":1226828073_w0" function="walkingarea">
        <lane id=":1226828073_w0_0" index="0" allow="pedestrian" speed="1.00" length="5.93" width="4.00" shape="2261.44,2647.98 2259.47,2648.34 2260.71,2656.90 2262.70,2656.69 2262.26,2652.71"/>
    </edge>
    <edge id=":1226828073_w1" function="walkingarea">
        <lane id=":1226828073_w1_0" index="0" allow="pedestrian" speed="1.00" length="5.30" width="4.00" shape="2268.63,2652.01 2269.06,2655.98 2271.05,2655.77 2272.38,2654.11 2272.02,2650.93 2272.02,2650.93 2271.66,2647.75 2269.70,2646.46 2267.73,2646.82"/>
    </edge>
    <edge id=":1226828075_0" function="internal">
        <lane id=":1226828075_0_0" index="0" disallow="pedestrian tram rail_urban rail rail_electric rail_fast ship" speed="8.34" length="9.41" shape="2195.42,2719.75 2186.10,2718.46"/>
    </edge>
    <edge id=":1226828075_1" function="internal">
        <lane id=":1226828075_1_0" index="0" allow="delivery bicycle" speed="6.95" length="4.41" shape="2195.42,2719.75 2192.87,2718.87 2191.69,2717.62"/>
    </edge>
    <edge id=":1226828075_6" function="internal">
        <lane id=":1226828075_6_0" index="0" allow="delivery bicycle" speed="6.95" length="7.38" shape="2191.69,2717.62 2191.15,2717.05 2190.28,2714.28 2190.25,2710.58"/>
    </edge>
    <edge id=":1226828075_2" function="internal">
        <lane id=":1226828075_2_0" index="0" allow="delivery bicycle" speed="5.85" length="6.85" shape="2193.43,2710.88 2193.40,2713.22 2193.79,2714.95 2194.61,2716.07 2195.86,2716.58"/>
    </edge>
    <edge id=":1226828075_3" function="internal">
        <lane id=":1226828075_3_0" index="0" allow="delivery bicycle" speed="6.95" length="12.09" shape="2193.43,2710.88 2192.68,2714.53 2191.21,2717.02 2189.01,2718.33 2186.10,2718.46"/>
    </edge>
    <edge id=":1226828075_4" function="internal">
        <lane id=":1226828075_4_0" index="0" allow="delivery bicycle" speed="5.66" length="6.79" shape="2186.54,2715.29 2187.98,2715.16 2189.08,2714.34 2189.84,2712.81 2190.25,2710.58"/>
    </edge>
    <edge id=":1226828075_5" function="internal">
        <lane id=":1226828075_5_0" index="0" disallow="pedestrian tram rail_urban rail rail_electric rail_fast ship" speed="8.34" length="9.41" shape="2186.54,2715.29 2195.86,2716.58"/>
    </edge>
    <edge id=":1226828075_c0" function="crossing" crossingEdges="-4911107#2 4911107#2">
        <lane id=":1226828075_c0_0" index="0" allow="pedestrian" speed="1.00" length="6.40" width="4.00" shape="2194.09,2714.72 2193.22,2721.06"/>
    </edge>
    <edge id=":1226828075_w0" function="walkingarea">
        <lane id=":1226828075_w0_0" index="0" allow="pedestrian" speed="1.00" length="6.37" width="4.00" shape="2185.88,2720.05 2185.61,2722.03 2194.93,2723.31 2195.20,2721.33 2191.24,2720.78"/>
    </edge>
    <edge id=":1226828075_w1" function="walkingarea">
        <lane id=":1226828075_w1_0" index="0" allow="pedestrian" speed="1.00" length="5.37" width="4.00" shape="2192.11,2714.44 2196.07,2714.99 2196.35,2713.01 2195.03,2711.02 2191.84,2710.73 2191.84,2710.73 2188.65,2710.44 2187.03,2711.72 2186.76,2713.71"/>
    </edge>
    <edge id=":1226828077_0" function="internal">
        <lane id=":1226828077_0_0" index="0" allow="pedestrian delivery bicycle" speed="5.56" length="9.41" shape="2390.07,2756.56 2388.03,2765.75"/>
    </edge>
    <edge id=":1226828077_1" function="internal">
        <lane id=":1226828077_1_0" index="0" allow="pedestrian delivery bicycle" speed="5.56" length="10.18" shape="2390.07,2756.56 2389.10,2759.08 2387.51,2760.73 2385.30,2761.51 2382.45,2761.42"/>
    </edge>
    <edge id=":1226828077_2" function="internal">
        <lane id=":1226828077_2_0" index="0" allow="pedestrian delivery bicycle" speed="5.22" length="5.22" shape="2382.97,2758.27 2384.47,2758.32 2385.63,2757.94 2386.45,2757.12 2386.95,2755.87"/>
    </edge>
    <edge id=":1226828077_3" function="internal">
        <lane id=":1226828077_3_0" index="0" allow="pedestrian delivery bicycle" speed="5.56" length="10.44" shape="2382.97,2758.27 2385.72,2759.14 2387.48,2760.67 2388.25,2762.88 2388.03,2765.75"/>
    </edge>
    <edge id=":1226828077_4" function="internal">
        <lane id=":1226828077_4_0" index="0" allow="pedestrian delivery bicycle" speed="4.98" length="5.07" shape="2384.91,2765.06 2385.02,2763.66 2384.64,2762.59 2383.79,2761.85 2382.45,2761.42"/>
    </edge>
    <edge id=":1226828077_5" function="internal">
        <lane id=":1226828077_5_0" index="0" allow="pedestrian delivery bicycle" speed="5.56" length="9.41" shape="2384.91,2765.06 2386.95,2755.87"/>
    </edge>
    <edge id=":1226828077_w0" function="walkingarea">
        <lane id=":1226828077_w0_0" index="0" allow="pedestrian" speed="1.00" length="6.93" width="3.20" shape="2391.63,2756.91 2388.51,2756.22 2388.51,2756.22 2385.38,2755.52 2383.23,2756.69 2382.71,2759.85 2382.71,2759.85 2382.19,2763.00 2383.35,2764.71 2386.47,2765.40 2386.47,2765.40 2389.60,2766.10"/>
    </edge>
    <edge id=":1226828087_0" function="internal">
        <lane id=":1226828087_0_0" index="0" disallow="pedestrian tram rail_urban rail rail_electric rail_fast ship" speed="8.34" length="4.87" shape="2171.56,2716.46 2166.75,2715.69"/>
    </edge>
    <edge id=":1226828087_1" function="internal">
        <lane id=":1226828087_1_0" index="0" disallow="pedestrian tram rail_urban rail rail_electric rail_fast ship" speed="8.34" length="4.75" shape="2167.30,2712.54 2172.00,2713.29"/>
    </edge>
    <edge id=":1226828087_c0" function="crossing" crossingEdges="-4911107#3 4911107#3">
        <lane id=":1226828087_c0_0" index="0" allow="pedestrian" speed="1.00" length="6.40" width="4.00" shape="2170.23,2711.43 2169.36,2717.77"/>
    </edge>
    <edge id=":1226828087_w0" function="walkingarea">
        <lane id=":1226828087_w0_0" index="0" allow="pedestrian" speed="1.00" length="3.50" width="4.00" shape="2166.48,2717.27 2166.13,2719.24 2167.32,2720.97 2169.28,2721.36 2171.07,2720.02 2171.34,2718.04 2167.38,2717.49"/>
    </edge>
    <edge id=":1226828087_w1" function="walkingarea">
        <lane id=":1226828087_w1_0" index="0" allow="pedestrian" speed="1.00" length="3.25" width="4.00" shape="2168.25,2711.15 2172.22,2711.70 2172.49,2709.72 2167.93,2709.00 2167.58,2710.97"/>
    </edge>
    <edge id=":1226828090_0" function="internal">
        <lane id=":1226828090_0_0" index="0" allow="pedestrian delivery bicycle" speed="4.94" length="5.13" shape="2349.40,2648.97 2347.98,2648.83 2346.90,2649.20 2346.17,2650.07 2345.78,2651.44"/>
    </edge>
    <edge id=":1226828090_1" function="internal">
        <lane id=":1226828090_1_0" index="0" allow="pedestrian delivery bicycle" speed="5.56" length="9.18" shape="2349.40,2648.97 2346.75,2648.33 2344.95,2647.82 2343.21,2647.14 2340.75,2645.97"/>
    </edge>
    <edge id=":1226828090_2" function="internal">
        <lane id=":1226828090_2_0" index="0" allow="pedestrian delivery bicycle" speed="5.56" length="8.48" shape="2342.17,2643.10 2344.44,2644.18 2346.04,2644.81 2347.71,2645.27 2350.15,2645.86"/>
    </edge>
    <edge id=":1226828090_3" function="internal">
        <lane id=":1226828090_3_0" index="0" allow="pedestrian delivery bicycle" speed="5.56" length="9.76" shape="2342.17,2643.10 2344.06,2644.45 2345.29,2646.28 2345.86,2648.61 2345.78,2651.44"/>
    </edge>
    <edge id=":1226828090_4" function="internal">
        <lane id=":1226828090_4_0" index="0" allow="pedestrian delivery bicycle" speed="5.56" length="5.75" shape="2342.61,2651.01 2342.69,2649.25 2342.40,2647.82 2341.76,2646.73 2340.75,2645.97"/>
    </edge>
    <edge id=":1226828090_5" function="internal">
        <lane id=":1226828090_5_0" index="0" allow="pedestrian delivery bicycle" speed="5.56" length="10.69" shape="2342.61,2651.01 2343.42,2648.15 2344.95,2646.34 2347.20,2645.57 2350.15,2645.86"/>
    </edge>
    <edge id=":1226828090_w0" function="walkingarea">
        <lane id=":1226828090_w0_0" index="0" allow="pedestrian" speed="1.00" length="6.89" width="3.20" shape="2349.02,2650.52 2349.78,2647.41 2349.78,2647.41 2350.53,2644.30 2342.88,2641.67 2341.46,2644.54 2341.46,2644.54 2340.04,2647.41 2341.02,2650.79 2344.19,2651.22 2344.19,2651.22 2347.36,2651.65 2348.57,2650.45 2348.19,2650.49 2347.88,2650.63 2347.64,2650.87 2347.46,2651.21"/>
    </edge>
    <edge id=":1226828091_0" function="internal">
        <lane id=":1226828091_0_0" index="0" disallow="pedestrian tram rail_urban rail rail_electric rail_fast ship" speed="8.33" length="4.95" shape="2177.64,2597.70 2172.80,2598.74"/>
    </edge>
    <edge id=":1226828091_1" function="internal">
        <lane id=":1226828091_1_0" index="0" disallow="pedestrian tram rail_urban rail rail_electric rail_fast ship" speed="8.33" length="4.91" shape="2172.15,2595.60 2176.95,2594.57"/>
    </edge>
    <edge id=":1226828091_c0" function="crossing" crossingEdges="4877786#2 -4877786#2">
        <lane id=":1226828091_c0_0" index="0" allow="pedestrian" speed="1.00" length="6.40" width="4.00" shape="2174.65,2593.44 2176.04,2599.69"/>
    </edge>
    <edge id=":1226828091_w0" function="walkingarea">
        <lane id=":1226828091_w0_0" index="0" allow="pedestrian" speed="1.00" length="3.50" width="4.00" shape="2173.13,2600.30 2173.54,2602.26 2175.31,2603.43 2177.27,2603.02 2178.42,2601.21 2177.99,2599.26 2174.09,2600.12"/>
    </edge>
    <edge id=":1226828091_w1" function="walkingarea">
        <lane id=":1226828091_w1_0" index="0" allow="pedestrian" speed="1.00" length="3.39" width="4.00" shape="2172.70,2593.88 2176.61,2593.01 2176.17,2591.06 2171.42,2592.08 2171.82,2594.04"/>
    </edge>
    <edge id=":1226828096_0" function="internal">
        <lane id=":1226828096_0_0" index="0" disallow="pedestrian tram rail_urban rail rail_electric rail_fast ship" speed="13.89" length="9.38" shape="2193.48,2342.27 2191.39,2333.13"/>
    </edge>
    <edge id=":1226828096_1" function="internal">
        <lane id=":1226828096_1_0" index="0" allow="delivery bicycle" speed="7.37" length="4.51" shape="2193.48,2342.27 2193.38,2339.49 2194.13,2337.93"/>
    </edge>
    <edge id=":1226828096_6" function="internal">
        <lane id=":1226828096_6_0" index="0" allow="delivery bicycle" speed="7.37" length="7.29" shape="2194.13,2337.93 2194.46,2337.23 2196.73,2335.49 2200.18,2334.27"/>
    </edge>
    <edge id=":1226828096_2" function="internal">
        <lane id=":1226828096_2_0" index="0" allow="delivery bicycle" speed="5.73" length="6.71" shape="2200.92,2337.39 2198.77,2338.09 2197.34,2339.02 2196.61,2340.18 2196.60,2341.56"/>
    </edge>
    <edge id=":1226828096_3" function="internal">
        <lane id=":1226828096_3_0" index="0" allow="delivery bicycle" speed="7.35" length="11.85" shape="2200.92,2337.39 2197.28,2337.84 2194.48,2337.28 2192.52,2335.71 2191.39,2333.13"/>
    </edge>
    <edge id=":1226828096_4" function="internal">
        <lane id=":1226828096_4_0" index="0" allow="delivery bicycle" speed="5.70" length="6.70" shape="2194.51,2332.41 2195.12,2333.67 2196.28,2334.40 2197.96,2334.60 2200.18,2334.27"/>
    </edge>
    <edge id=":1226828096_5" function="internal">
        <lane id=":1226828096_5_0" index="0" disallow="pedestrian tram rail_urban rail rail_electric rail_fast ship" speed="13.89" length="9.39" shape="2194.51,2332.41 2196.60,2341.56"/>
    </edge>
    <edge id=":1226828096_c0" function="crossing" crossingEdges="4877788#6 -4877788#6">
        <lane id=":1226828096_c0_0" index="0" allow="pedestrian" speed="1.00" length="6.40" width="4.00" shape="2197.72,2339.26 2191.47,2340.67"/>
    </edge>
    <edge id=":1226828096_w0" function="walkingarea">
        <lane id=":1226828096_w0_0" index="0" allow="pedestrian" speed="1.00" length="6.35" width="4.00" shape="2189.83,2333.49 2187.88,2333.94 2189.97,2343.06 2191.92,2342.62 2191.03,2338.72"/>
    </edge>
    <edge id=":1226828096_w1" function="walkingarea">
        <lane id=":1226828096_w1_0" index="0" allow="pedestrian" speed="1.00" length="5.31" width="4.00" shape="2197.27,2337.31 2198.16,2341.21 2200.11,2340.76 2201.29,2338.94 2200.55,2335.83 2200.55,2335.83 2199.81,2332.72 2198.01,2331.60 2196.07,2332.05"/>
    </edge>
    <edge id=":1226828106_0" function="internal">
        <lane id=":1226828106_0_0" index="0" allow="pedestrian delivery bicycle" speed="5.05" length="5.01" shape="2213.81,2303.06 2213.31,2301.78 2212.52,2300.97 2211.44,2300.62 2210.07,2300.75"/>
    </edge>
    <edge id=":1226828106_1" function="internal">
        <lane id=":1226828106_1_0" index="0" allow="pedestrian delivery bicycle" speed="8.33" length="9.41" shape="2213.81,2303.06 2211.64,2293.90"/>
    </edge>
    <edge id=":1226828106_2" function="internal">
        <lane id=":1226828106_2_0" index="0" allow="pedestrian delivery bicycle" speed="6.86" length="10.16" shape="2213.81,2303.06 2213.56,2300.28 2214.25,2298.09 2215.90,2296.49 2218.49,2295.47"/>
    </edge>
    <edge id=":1226828106_3" function="internal">
        <lane id=":1226828106_3_0" index="0" allow="pedestrian delivery bicycle" speed="5.04" length="5.00" shape="2219.22,2298.59 2217.95,2299.09 2217.14,2299.87 2216.80,2300.95 2216.92,2302.32"/>
    </edge>
    <edge id=":1226828106_4" function="internal">
        <lane id=":1226828106_4_0" index="0" allow="pedestrian delivery bicycle" speed="8.33" length="9.41" shape="2219.22,2298.59 2210.07,2300.75"/>
    </edge>
    <edge id=":1226828106_5" function="internal">
        <lane id=":1226828106_5_0" index="0" allow="pedestrian delivery bicycle" speed="6.87" length="10.17" shape="2219.22,2298.59 2216.45,2298.84 2214.26,2298.14 2212.66,2296.49 2211.64,2293.90"/>
    </edge>
    <edge id=":1226828106_6" function="internal">
        <lane id=":1226828106_6_0" index="0" allow="pedestrian delivery bicycle" speed="5.05" length="5.01" shape="2214.75,2293.16 2215.25,2294.44 2216.04,2295.25 2217.12,2295.59 2218.49,2295.47"/>
    </edge>
    <edge id=":1226828106_7" function="internal">