<configuration>
	<input>
		<net-file value="Netzmodell2.net.xml"/>
		<route-files value="flows_SUMOV2.2.rou.xml"/>
		<gui-settings-file value="settings.xml"/>
		<additional-files value="additional.add.xml"/>
	</input>
	<time>
		<begin value="53990"/>
		<end value="61000"/>
	</time>
</configuration>