<?xml version="1.0" encoding="UTF-8"?>

<!-- generated on 03/29/21 08:52:16 by Eclipse SUMO duarouter Version v1_8_0+1888-60a1ee3ca5
<configuration xmlns:xsi="http://www.w3.org/2001/XMLSchema-instance" xsi:noNamespaceSchemaLocation="http://sumo.dlr.de/xsd/duarouterConfiguration.xsd">

    <input>
        <net-file value="Netzmodell2.net.xml"/>
        <route-files value="trips.trips.xml"/>
    </input>

    <output>
        <output-file value="osm.passenger.routes.xml"/>
        <alternatives-output value="osm.passenger.routes.alt.xml"/>
    </output>

    <time>
        <begin value="53990"/>
        <end value="61000"/>
    </time>

    <report>
        <no-warnings value="true"/>
        <ignore-errors value="true"/>
        <no-step-log value="true"/>
    </report>

</configuration>
-->

<routes xmlns:xsi="http://www.w3.org/2001/XMLSchema-instance" xsi:noNamespaceSchemaLocation="http://sumo.dlr.de/xsd/routes_file.xsd">
    <vType id="veh_passenger" vClass="passenger"/>
    <vehicle id="veh1" type="veh_passenger" depart="53991.85" departLane="best" departSpeed="max">
        <route edges="-5197045#1 -5197045#0 -37628709#0 -880137010 782714970 -311298665 -535519490#1 -535519490#0 -4895001#0 -4935286#3 -4935286#2 5236308#1 -5236308#1 4935286#2 4935286#3 -5026771"/>
    </vehicle>
    <vehicle id="veh2" type="veh_passenger" depart="53993.70" departLane="best" departSpeed="max">
        <route edges="5026771 -4935286#3 -4935286#2 -4935286#1 -4935286#0 4935287#0 4935287#1 4935287#2 783647325#0 783647325#1 26216780#0 26216780#1 26216780#2"/>
    </vehicle>
    <vehicle id="veh3" type="veh_passenger" depart="53995.55" departLane="best" departSpeed="max">
        <route edges="8162045 5236305#1 5236305#2 4935286#3 131942152 535519490#0 535519490#1 311298665 58621262#0 58621262#1 880137009#0 880137009#1 783907721#0 783907721#1 783907721#2 782714971#0 782714971#1 782714971#2 782714971#3 782714971#4 111681903#0 111681903#1 111681903#2 111681903#3 120682114#1 120682114#2 120682114#3 24337240#0 24337240#1 24337240#2 24337240#3 24337240#4 24337240#5 24337240#7 835445203 111677668#0 111677668#3 111677668#4 -26943536#1 -26943536#0"/>
    </vehicle>
    <vehicle id="veh5" type="veh_passenger" depart="53999.25" departLane="best" departSpeed="max">
        <route edges="-4877791 40009020#0 40009020#2 40009020#4 40009020#5 40009020#6 40009020#7 111681903#0 111681903#1 111681903#2 111681903#3 120682114#1 120682114#2 120682114#3 24337240#0 24337240#1 24337240#2 24337240#3 24337240#4 24337240#5 24337240#7 835443463#0 835443463#2 4929432#0 4929432#1 4929432#2 23707342 240042196#0 240042196#2 240042196#3 240042195#0 240042195#1 240042195#2 274763813#0 274763813#1 274763813#2 274763813#3 274763813#4 274763813#5 -96687079#4 -96687079#3 -96687079#2 -96687079#1 -96687079#0"/>
    </vehicle>
    <vehicle id="veh6" type="veh_passenger" depart="54001.10" departLane="best" departSpeed="max">
        <route edges="-111677671#1 -111677671#0 -111677668#4 -111677668#3 -111677668#0 -835445203 -24337240#7 -24337240#6 -24337240#4 -24337240#3 -24337240#2 -24337240#1 -24337240#0 -120682114#3 -120682114#2 -120682114#1 -120682116#9 -120682116#7 -120682116#6 -120682116#5 -120682116#4 -120682116#3 -120682116#2 -120682116#1 -120682116#0 -4894996#3"/>
    </vehicle>
    <vehicle id="veh7" type="veh_passenger" depart="54002.95" departLane="best">
        <route edges="37551339#0 37551339#1 37551339#2 -27267512#1 -27267512#0 311298665 58621262#0 58621262#1 880137009#0 880137009#1 783907721#0 783907721#1 783907721#2 782714971#0 782714971#1 782714971#2 782714971#3 782714971#4 111681903#0 111681903#1 111681903#2 111681903#3 120682114#1 120682114#2 120682114#3 24337240#0 24337240#1 24337240#2 24337240#3 24337240#4 24337240#5 24337240#7 835445203 111677668#0 111677668#3 111677668#4 111677671#0 111677671#1"/>
    </vehicle>
    <vehicle id="veh8" type="veh_passenger" depart="54004.80" departLane="best" departSpeed="max">
        <route edges="-4877791 40009020#0 40009020#2 40009020#4 40009020#5 40009020#6 40009020#7 -782714971#4 -782714971#3 -782714971#2 -782714971#1 -782714971#0 -783907721#2 -783907721#1 -783907721#0 -880137009#1 -880137009#0 747448014 880137010 37628709#0 37628709#1 205590836#2 255274250"/>
    </vehicle>
    <vehicle id="veh9" type="veh_passenger" depart="54006.65" departLane="best" departSpeed="max">
        <route edges="5029408 5029409#1 -7924755 311298685 4877788#0 4877788#1 4877788#2 -120682115"/>
    </vehicle>
    <vehicle id="veh10" type="veh_passenger" depart="54008.50" departLane="best" departSpeed="max">
        <route edges="5029408 5029409#1 -7924755 311298685 -782714966#1 -782714966#0 -502325084#3 -502325084#1 -502325084#0 -25970859#1 -25970859#0 -880140407 -4895001#0 -4935286#3 -4935286#2 -4935286#1 -4935286#0 4935287#0 240042189 26216781#2"/>
    </vehicle>
    <vehicle id="veh11" type="veh_passenger" depart="54010.35" departLane="best" departSpeed="max">
        <route edges="-5197061#3 -5197061#2 -5197061#1 -5197061#0 -120682114#2 -120682114#1 -111681903#3 -111681903#2 -111681903#1 -111681903#0 -782714971#4 -782714971#3 -782714971#2 -782714971#1 -782714971#0 -783907721#2 -783907721#1 -783907721#0 -880137009#1 -880137009#0 747448014 880137010 37628709#0 37628709#1 205590836#2 -37548821#1 -37548821#0"/>
    </vehicle>
    <vehicle id="veh12" type="veh_passenger" depart="54012.20" departLane="best" departSpeed="max">
        <route edges="96687079#0 96687079#1 96687079#2 96687079#3 96687079#4 274763815#0 274763815#1 -835443464 -311298662#1 -311298662#0 -782714966#1 -782714966#0 -502325084#3 -502325084#1 -502325084#0 -25970859#1 -25970859#0 -880140407 -4895001#0 -4935286#3 -5236305#2 -5236305#1 -5236305#0"/>
    </vehicle>
    <vehicle id="veh13" type="veh_passenger" depart="54014.05" departLane="best" departSpeed="max">
        <route edges="-255274250 -205590836#2 -205590836#0 -37628709#0 -880137010 782714970 58621262#0 58621262#1 880137009#0 880137009#1 783907721#0 783907721#1 783907721#2 782714971#0 782714971#1 782714971#2 782714971#3 782714971#4 111681903#0 111681903#1 111681903#2 111681903#3 120682114#1 120682114#2 120682114#3 24337240#0 24337240#1 24337240#2 24337240#3 24337240#4 24337240#5 24337240#7 835445203 111677668#0 111677668#3 111677668#4 -26943536#1 -26943536#0"/>
    </vehicle>
    <vehicle id="veh14" type="veh_passenger" depart="54015.90" departLane="best" departSpeed="max">
        <route edges="5236305#0 5236305#1 5236305#2 4935286#3 131942152 535519490#0 535519490#1 311298665 58621262#0 58621262#1 747448014 880137010 37628709#0 37628709#1 205590836#2 255274250"/>
    </vehicle>
    <vehicle id="veh15" type="veh_passenger" depart="54017.75" departLane="best" departSpeed="max">
        <route edges="5029408 5029409#1 -7924755 311298685 4877788#0 4877788#1 4877788#2 4877788#4 4877788#5 4877788#6 -4894996#3 -4894996#2 627579930#1 4877791"/>
    </vehicle>
    <vehicle id="veh16" type="veh_passenger" depart="54019.60" departLane="best" departSpeed="max">
        <route edges="26943536#0 26943536#1 -111677668#4 -111677668#3 -111677668#0 7365262 74277990 gneE2 -gneE3 gneE4"/>
    </vehicle>
    <vehicle id="veh17" type="veh_passenger" depart="54021.45" departLane="best" departSpeed="max">
        <route edges="-8050332 5197064#3 5197061#2 5197062#0 5197062#1 5197062#2 5197062#3 5197062#4 24337240#5 24337240#7 835445203 111677668#0 111677668#3 111677668#4 111677671#0 111677671#1"/>
    </vehicle>
    <vehicle id="veh18" type="veh_passenger" depart="54023.30" departLane="best" departSpeed="max">
        <route edges="5236305#0 5236305#1 5236305#2 4935286#3 131942152 535519490#0 535519490#1 311298665 58621262#0 58621262#1 747448014 880137010 37628709#0 37628709#1 205590836#2 255274250"/>
    </vehicle>
    <vehicle id="veh19" type="veh_passenger" depart="54025.15" departLane="best" departSpeed="max">
        <route edges="5236305#0 5236305#1 5236305#2 4935286#3 131942152 880140407 25970859#0 25970859#1 502325084#0 502325084#1 502325084#3 782714966#0 782714966#1 4877788#0 4877788#1 4877788#2 4877788#4 4877788#5 4877788#6 120682116#0 120682116#1"/>
    </vehicle>
    <vehicle id="veh20" type="veh_passenger" depart="54027.00" departLane="best" departSpeed="max">
        <route edges="4935299#0 4935299#1 26216779#0 26216779#1 26216781#0 26216781#1 26216781#2 26216781#3 4935286#0 4935286#1 4935286#2 4935286#3 131942152 535519490#0 535519490#1 311298665 58621262#0 58621262#1 880137009#0 880137009#1 783907721#0 783907721#1 783907721#2 782714971#0 782714971#1 782714971#2 782714971#3 782714971#4 111681903#0 111681903#1 111681903#2 111681903#3 120682114#1 120682114#2 120682114#3 24337240#0 24337240#1 24337240#2 24337240#3 24337240#4 24337240#5 24337240#7 835445203 111677668#0 111677668#3 111677668#4 -26943536#1 -26943536#0"/>
    </vehicle>
    <vehicle id="veh21" type="veh_passenger" depart="54028.85" departLane="best" departSpeed="max">
        <route edges="-4877791 -627579930#1 4894996#2 4894996#3 -4877788#6 -4877788#5 -4877788#4 -4877788#2 -4877788#1 -4877788#0 -311298685 7924755 -5029409#1 -5029408"/>
    </vehicle>
    <vehicle id="veh22" type="veh_passenger" depart="54030.70" departLane="best" departSpeed="max">
        <route edges="-255274250 -205590836#2 -205590836#0 -37628709#0 -880137010 782714970 -311298665 -535519490#1 -535519490#0 -4895001#0 -4935286#3 -4935286#2 5236308#1 -5236308#1 4935286#2 4935286#3 -5026771"/>
    </vehicle>
    <vehicle id="veh23" type="veh_passenger" depart="54032.55" departLane="best" departSpeed="max">
        <route edges="-255274250 -205590836#2 -205590836#0 -37628709#0 -880137010 782714970 -311298665 -535519490#1 -535519490#0 880140407 25970859#0 25970859#1 502325084#0 502325084#1 502325084#3 782714966#0 782714966#1 -311298685 7924755 -5029409#1 -5029408"/>
    </vehicle>
    <vehicle id="veh24" type="veh_passenger" depart="54034.40" departLane="best" departSpeed="max">
        <route edges="37548821#0 37548821#1 -205590836#2 -205590836#0 -37628709#0 -880137010 782714970 -311298665 -535519490#1 -535519490#0 -4895001#0 -4935286#3 -5236305#2 -5236305#1 -5236305#0"/>
    </vehicle>
    <vehicle id="veh25" type="veh_passenger" depart="54036.25" departLane="best" departSpeed="max">
        <route edges="-8050332 5197064#3 -5197061#1 -5197061#0 -120682114#2 -120682114#1 -120682116#9 -120682116#7 -120682116#6 -120682116#5 -120682116#4 -120682116#3 -120682116#2 -120682116#1 -120682116#0 -4877788#6 -4877788#5 -4877788#4 -4877788#2 -4877788#1 -4877788#0 -782714966#1 -782714966#0 -502325084#3"/>
    </vehicle>
    <vehicle id="veh26" type="veh_passenger" depart="54038.10" departLane="best" departSpeed="max">
        <route edges="-5197045#1 -5197045#0 -37628709#0 -880137010 782714970 58621262#0 58621262#1 880137009#0 880137009#1 783907721#0 783907721#1 783907721#2 782714971#0 782714971#1 782714971#2 782714971#3 782714971#4 111681903#0 111681903#1 111681903#2 111681903#3 120682114#1 120682114#2 5197061#0 5197061#1 -5197064#3 8050332"/>
    </vehicle>
    <vehicle id="veh27" type="veh_passenger" depart="54039.95" departLane="best" departSpeed="max">
        <route edges="-274763814#1 -274763814#0 274763815#0 274763815#1 -835443464 -311298662#1 -311298662#0 4877788#0 4877788#1 4877788#2 4877788#4 4877788#5 4877788#6 -4894996#3 -4894996#2 627579930#1 4877791"/>
    </vehicle>
    <vehicle id="veh28" type="veh_passenger" depart="54041.80" departLane="best" departSpeed="max">
        <route edges="-274763814#1 -274763814#0 274763815#0 274763815#1 -835443464 -311298662#1 -311298662#0 -782714966#1 -782714966#0 -502325084#3 -502325084#1 -502325084#0 -25970859#1 -25970859#0 -880140407 -4895001#0 -4935286#3 -5236305#2 -5236305#1 -5236305#0"/>
    </vehicle>
    <vehicle id="veh29" type="veh_passenger" depart="54043.65" departLane="best" departSpeed="max">
        <route edges="96687079#0 96687079#1 96687079#2 96687079#3 96687079#4 274763815#0 274763815#1 -835443464 -311298662#1 -311298662#0 -782714966#1 -782714966#0 -502325084#3 -502325084#1 -502325084#0 -25970859#1 -25970859#0 -880140407 535519490#0 535519490#1 311298665 58621262#0 58621262#1 747448014 782714970 -311298665 -535519490#1 -535519490#0 880140407 25970859#0"/>
    </vehicle>
    <vehicle id="veh30" type="veh_passenger" depart="54045.50" departLane="best" departSpeed="max">
        <route edges="27149243 747448015 782710712 -28298231 -311298682#0 -311298658 -835443464 -311298662#1 -311298662#0 -782714966#1 -782714966#0 -502325084#3 -502325084#1 -502325084#0 -25970859#1 -25970859#0 -880140407 -4895001#0 -4935286#3 -4935286#2 -4935286#1 -4935286#0 4935287#0 4935287#1 4935287#2 783647325#0 783647325#1 26216780#0 26216780#1 26216780#2"/>
    </vehicle>
    <vehicle id="veh31" type="veh_passenger" depart="54047.35" departLane="best" departSpeed="max">
        <route edges="5236305#0 5236305#1 5236305#2 4935286#3 131942152 880140407 25970859#0 25970859#1 502325084#0 502325084#1 5057605#0 5057605#1 4970254#1 4970254#2 4970254#3"/>
    </vehicle>
    <vehicle id="veh33" type="veh_passenger" depart="54051.05" departLane="best" departSpeed="max">
        <route edges="-5197061#3 -5197061#2 -5197061#1 -5197061#0 -120682114#2 -120682114#1 -120682116#9 -120682116#7 -120682116#6 -120682116#5 -120682116#4 -120682116#3 -120682116#2 -120682116#1 -120682116#0 -4877788#6 -4877788#5 -4877788#4 -4877788#2 -4877788#1 -4877788#0 -311298685 7924755 -5029409#1 -5029408"/>
    </vehicle>
    <vehicle id="veh34" type="veh_passenger" depart="54052.90" departLane="best" departSpeed="max">
        <route edges="-4877791 40009020#0 40009020#2 40009020#4 40009020#5 40009020#6 40009020#7 111681903#0 111681903#1 111681903#2 111681903#3 120682114#1 120682114#2 5197061#0 5197061#1 -5197064#3 8050332"/>
    </vehicle>
    <vehicle id="veh35" type="veh_passenger" depart="54054.75" departLane="best" departSpeed="max">
        <route edges="5236305#0 5236305#1 5236305#2 4935286#3 131942152 880140407 25970859#0 25970859#1 502325084#0 502325084#1 502325084#3 782714966#0 782714966#1 -311298685 7924755 -5029409#1 -5029408"/>
    </vehicle>
    <vehicle id="veh36" type="veh_passenger" depart="54056.60" departLane="best">
        <route edges="4894992#3 120682115 -4877788#2 -4877788#1 -4877788#0 -782714966#1 -782714966#0 -502325084#3 -502325084#1 -502325084#0 -25970859#1 -25970859#0 -880140407 -4895001#0 -4935286#3 -5236305#2 -5236305#1 -8162045"/>
    </vehicle>
    <vehicle id="veh37" type="veh_passenger" depart="54058.45" departLane="best" departSpeed="max">
        <route edges="8162045 5236305#1 5236305#2 4935286#3 131942152 880140407 25970859#0 25970859#1 502325084#0 502325084#1 502325084#3 782714966#0 782714966#1 311298662#0 311298662#1 835443464 -274763815#1 -274763815#0 -274763813#5 -274763813#4 -274763813#3 -274763813#2 -274763813#1 -274763813#0 4950115#0 23359215#0 -23359215#0 -4950115#0 274763813#0 274763813#1 274763813#2 274763813#3 274763813#4 274763813#5 -96687079#4 -96687079#3 -96687079#2 -96687079#1 -96687079#0"/>
    </vehicle>
    <vehicle id="veh38" type="veh_passenger" depart="54060.30" departLane="best" departSpeed="max">
        <route edges="-5197045#1 -5197045#0 -37628709#0 -880137010 782714970 -311298665 -535519490#1 -535519490#0 -4895001#0 -4935286#3 -4935286#2 5236308#1 -5236308#1 4935286#2 4935286#3 -5026771"/>
    </vehicle>
    <vehicle id="veh39" type="veh_passenger" depart="54062.15" departLane="best" departSpeed="max">
        <route edges="27149243 747448015 782710712 -28298231 -311298682#0 -311298658 -835443464 -311298662#1 -311298662#0 -782714966#1 -782714966#0 -502325084#3 -502325084#1 -502325084#0 -25970859#1 -25970859#0 -880140407 -4895001#0 -4935286#3 -4935286#2 5236308#1 -5236308#1 4935286#2 4935286#3 -5026771"/>
    </vehicle>
    <vehicle id="veh40" type="veh_passenger" depart="54064.00" departLane="best" departSpeed="max">
        <route edges="27149243 747448015 782710712 -28298231 -311298682#0 -311298658 -835443464 -311298662#1 -311298662#0 4877788#0 4877788#1 4877788#2 4877788#4 4877788#5 4877788#6 120682116#0 120682116#1 120682116#2 120682116#3 120682116#4 120682116#5 120682116#6 120682116#7 120682116#9 -111681903#3 -111681903#2 -111681903#1 -111681903#0 498033359#0 498033359#1 498033359#2 498033359#3 498033359#4 40009021#0 40009021#1 5197064#0 5197064#1 5197064#2"/>
    </vehicle>
    <vehicle id="veh41" type="veh_passenger" depart="54065.85" departLane="best" departSpeed="max">
        <route edges="-8050332 5197064#3 -5197061#1 -5197061#0 -120682114#2 -120682114#1 -111681903#3 -111681903#2 -111681903#1 -111681903#0 -782714971#4 -782714971#3 -782714971#2 -782714971#1 -782714971#0 -783907721#2 -783907721#1 -783907721#0 -880137009#1 -880137009#0 747448014 782714970 -311298665 -535519490#1 -535519490#0 -4895001#0 -4935286#3 -4935286#2 5236308#1 -5236308#1 4935286#2 4935286#3 -5026771"/>
    </vehicle>
    <vehicle id="veh42" type="veh_passenger" depart="54067.70" departLane="best" departSpeed="max">
        <route edges="-255274250 -205590836#2 -205590836#0 -37628709#0 -880137010 782714970 58621262#0 58621262#1 880137009#0 880137009#1 783907721#0 783907721#1 783907721#2 782714971#0 782714971#1 782714971#2 782714971#3 782714971#4 111681903#0 111681903#1 111681903#2 111681903#3 120682114#1 120682114#2 120682114#3 24337240#0 24337240#1 24337240#2 24337240#3 24337240#4 24337240#5 24337240#7 835445203 111677668#0 111677668#3 111677668#4 -26943536#1 -26943536#0"/>
    </vehicle>
    <vehicle id="veh43" type="veh_passenger" depart="54069.55" departLane="best" departSpeed="max">
        <route edges="5029408 5029409#1 -7924755 311298685 -782714966#1 -782714966#0 -502325084#3 -502325084#1 -502325084#0 -25970859#1 -25970859#0 -880140407 -4895001#0 -4935286#3 -5236305#2 -5236305#1 -8162045"/>
    </vehicle>
    <vehicle id="veh44" type="veh_passenger" depart="54071.40" departLane="best">
        <route edges="-240042195#2 -240042195#1 -240042195#0 -240042196#3 -240042196#2 -240042196#0 -23707342 -4929432#2 -4929432#1 -4929432#0 -835443463#2 -835443463#0 -24337240#7 -24337240#6 -24337240#4 -24337240#3 -24337240#2 -24337240#1 -24337240#0 -120682114#3 -120682114#2 -120682114#1 -111681903#3 -111681903#2 -111681903#1 -111681903#0 -782714971#4 -782714971#3 -782714971#2 -782714971#1 -782714971#0 -783907721#2 -783907721#1 -783907721#0 -880137009#1 -880137009#0 747448014 782714970 -311298665 -535519490#1 -535519490#0 -4895001#0 -4935286#3 -5236305#2 -5236305#1 -5236305#0"/>
    </vehicle>
    <vehicle id="veh45" type="veh_passenger" depart="54073.25" departLane="best" departSpeed="max">
        <route edges="96687079#0 96687079#1 96687079#2 96687079#3 96687079#4 -274763813#5 -274763813#4 -274763813#3 -274763813#2 -274763813#1 -274763813#0 -240042195#2 -240042195#1 -240042195#0 -240042196#3 -240042196#2 -240042196#0 -23707342 -4929432#2 -4929432#1 -4929432#0 -835443463#2 -835443463#0 835445203 111677668#0 111677668#3 111677668#4 111677671#0 111677671#1"/>
    </vehicle>
    <vehicle id="veh46" type="veh_passenger" depart="54075.10" departLane="best" departSpeed="max">
        <route edges="96687079#0 96687079#1 96687079#2 96687079#3 96687079#4 -274763813#5 -274763813#4 -274763813#3 -274763813#2 -274763813#1 -274763813#0 -240042195#2 -240042195#1 -240042195#0 -240042196#3 -240042196#2 -240042196#0 -23707342 -4929432#2 -4929432#1 -4929432#0 -835443463#2 -835443463#0 -24337240#7 -24337240#6 -5197062#4 -5197062#3 -5197062#2 -5197062#1 -5197062#0 5197061#3"/>
    </vehicle>
    <vehicle id="veh47" type="veh_passenger" depart="54076.95" departLane="best" departSpeed="max">
        <route edges="-111677671#1 -111677671#0 -111677668#4 -111677668#3 -111677668#0 -835445203 -24337240#7 -24337240#6 -24337240#4 -24337240#3 -24337240#2 -24337240#1 -24337240#0 -120682114#3 -120682114#2 -120682114#1 -111681903#3 -111681903#2 -111681903#1 -111681903#0 -40009020#7 -40009020#6 -40009020#5 -40009020#4 -40009020#3 -40009020#0 4877791"/>
    </vehicle>
    <vehicle id="veh48" type="veh_passenger" depart="54078.80" departLane="best" departSpeed="max">
        <route edges="4935299#0 4935299#1 26216779#0 26216779#1 26216781#0 26216781#1 26216781#2 26216781#3 4935286#0 4935286#1 4935286#2 4935286#3 131942152 535519490#0 535519490#1 311298665 58621262#0 58621262#1 880137009#0 880137009#1 783907721#0 783907721#1 783907721#2 782714971#0 782714971#1 782714971#2 782714971#3 782714971#4 111681903#0 111681903#1 111681903#2 111681903#3 120682114#1 120682114#2 120682114#3 24337240#0 24337240#1 24337240#2 24337240#3 24337240#4 24337240#5 24337240#7 835445203 111677668#0 111677668#3 111677668#4 111677671#0 111677671#1"/>
    </vehicle>
    <vehicle id="veh49" type="veh_passenger" depart="54080.65" departLane="best" departSpeed="max">
        <route edges="-5197045#1 -5197045#0 -37628709#0 -880137010 782714970 -311298665 -535519490#1 -535519490#0 -4895001#0 -4935286#3 -4935286#2 -4935286#1 -4935286#0 4935287#0 4935287#1 4935287#2 783647325#0 783647325#1 26216780#0 26216780#1 26216780#2"/>
    </vehicle>
    <vehicle id="veh50" type="veh_passenger" depart="54082.50" departLane="best" departSpeed="max">
        <route edges="-255274250 -205590836#2 -205590836#0 -37628709#0 -880137010 782714970 -311298665 -535519490#1 -535519490#0 -4895001#0 -4935286#3 -5236305#2 -5236305#1 -8162045"/>
    </vehicle>
    <vehicle id="veh51" type="veh_passenger" depart="54084.35" departLane="best">
        <route edges="120682116#7 120682116#9 120682114#1 120682114#2 5197061#0 5197061#1 -5197064#3 8050332"/>
    </vehicle>
    <vehicle id="veh52" type="veh_passenger" depart="54086.20" departLane="best" departSpeed="max">
        <route edges="26943536#0 26943536#1 -111677668#4 -111677668#3 -111677668#0 -835445203 -24337240#7 -24337240#6 -24337240#4 -24337240#3 -24337240#2 -24337240#1 -24337240#0 -120682114#3 -120682114#2 -120682114#1 -111681903#3 -111681903#2 -111681903#1 -111681903#0 -782714971#4 -782714971#3 -782714971#2 -782714971#1 -782714971#0 -783907721#2 -783907721#1 -783907721#0 -880137009#1 -880137009#0 747448014 880137010 37628709#0 37628709#1 205590836#2 -37548821#1 -37548821#0"/>
    </vehicle>
    <vehicle id="veh53" type="veh_passenger" depart="54088.05" departLane="best" departSpeed="max">
        <route edges="8162045 5236305#1 5236305#2 4935286#3 131942152 535519490#0 535519490#1 311298665 58621262#0 58621262#1 880137009#0 880137009#1 783907721#0 783907721#1 783907721#2 782714971#0 782714971#1 782714971#2 782714971#3 782714971#4 111681903#0 111681903#1 111681903#2 111681903#3 120682114#1 120682114#2 5197061#0 5197061#1 5197061#2 5197061#3"/>
    </vehicle>
    <vehicle id="veh54" type="veh_passenger" depart="54089.90" departLane="best" departSpeed="max">
        <route edges="-5197045#1 -5197045#0 37628709#1 205590836#2 255274250"/>
    </vehicle>
    <vehicle id="veh55" type="veh_passenger" depart="54091.75" departLane="best" departSpeed="max">
        <route edges="5026771 131942152 535519490#0 535519490#1 311298665 58621262#0 58621262#1 880137009#0 880137009#1 783907721#0 783907721#1 783907721#2 782714971#0 782714971#1 782714971#2 782714971#3 782714971#4 111681903#0 111681903#1 111681903#2 111681903#3 120682114#1 120682114#2 120682114#3 24337240#0 24337240#1 24337240#2 24337240#3 24337240#4 24337240#5 24337240#7 835445203 111677668#0 111677668#3 111677668#4 111677671#0 111677671#1"/>
    </vehicle>
    <vehicle id="veh56" type="veh_passenger" depart="54093.60" departLane="best" departSpeed="max">
        <route edges="5029408 5029409#1 -7924755 311298685 4877788#0 4877788#1 4877788#2 4877788#4 4877788#5 4877788#6 120682116#0 120682116#1 120682116#2 120682116#3 120682116#4 120682116#5 120682116#6 120682116#7 120682116#9 120682114#1 120682114#2 120682114#3 24337240#0 24337240#1 24337240#2 24337240#3 24337240#4 24337240#5 24337240#7 835445203 111677668#0 111677668#3 111677668#4 111677671#0 111677671#1"/>
    </vehicle>
    <vehicle id="veh57" type="veh_passenger" depart="54095.45" departLane="best">
        <route edges="-111677669#1 -111677669#0 -111677668#4 -111677668#3 -111677668#0 -835445203 -24337240#7 -24337240#6 -24337240#4 -24337240#3 -24337240#2 -24337240#1 -24337240#0 -120682114#3 -120682114#2 -120682114#1 -111681903#3 -111681903#2 -111681903#1 -111681903#0 -782714971#4 -782714971#3 -782714971#2 -782714971#1 -5197053#3 -5197053#2 -5197053#1 -5197053#0 37627664#5 37627664#6 -5055277#2"/>
    </vehicle>
    <vehicle id="veh58" type="veh_passenger" depart="54097.30" departLane="best" departSpeed="max">
        <route edges="-111677671#1 -111677671#0 -111677668#4 -111677668#3 -111677668#0 -835445203 -24337240#7 -24337240#6 -5197062#4 -5197062#3 -5197062#2 -5197062#1 -5197062#0 -5197061#2 -5197064#3 8050332"/>
    </vehicle>
    <vehicle id="veh59" type="veh_passenger" depart="54099.15" departLane="best" departSpeed="max">
        <route edges="5236305#0 5236305#1 5236305#2 4935286#3 131942152 535519490#0 535519490#1 311298665 58621262#0 58621262#1 747448014 880137010 37628709#0 5197045#0 5197045#1"/>
    </vehicle>
    <vehicle id="veh60" type="veh_passenger" depart="54101.00" departLane="best" departSpeed="max">
        <route edges="-5197061#3 5197062#0 5197062#1 5197062#2 5197062#3 5197062#4 24337240#5 24337240#7 835445203 111677668#0 111677668#3 111677668#4 -26943536#1 -26943536#0"/>
    </vehicle>
    <vehicle id="veh61" type="veh_passenger" depart="54102.85" departLane="best" departSpeed="max">
        <route edges="5236305#0 5236305#1 5236305#2 4935286#3 131942152 535519490#0 535519490#1 311298665 58621262#0 58621262#1 880137009#0 880137009#1 783907721#0 783907721#1 783907721#2 782714971#0 782714971#1 782714971#2 782714971#3 782714971#4 111681903#0 111681903#1 111681903#2 111681903#3 120682114#1 120682114#2 5197061#0 5197061#1 -5197064#3 8050332"/>
    </vehicle>
    <vehicle id="veh62" type="veh_passenger" depart="54104.70" departLane="best" departSpeed="max">
        <route edges="-255274250 -205590836#2 -205590836#0 -37628709#0 -880137010 782714970 58621262#0 58621262#1 880137009#0 880137009#1 783907721#0 783907721#1 783907721#2 782714971#0 782714971#1 782714971#2 782714971#3 782714971#4 111681903#0 111681903#1 111681903#2 111681903#3 120682114#1 120682114#2 120682114#3 24337240#0 24337240#1 24337240#2 24337240#3 24337240#4 24337240#5 24337240#7 835443463#0 835443463#2 4929432#0 4929432#1 4929432#2 23707342 240042196#0 240042196#2 240042196#3 240042195#0 240042195#1 240042195#2 274763813#0 274763813#1 274763813#2 274763813#3 274763813#4 274763813#5 -96687079#4 -96687079#3 -96687079#2 -96687079#1 -96687079#0"/>
    </vehicle>
    <vehicle id="veh63" type="veh_passenger" depart="54106.55" departLane="best" departSpeed="max">
        <route edges="-255274250 -205590836#2 -205590836#0 -37628709#0 -880137010 782714970 58621262#0 28468730#0 28468730#1 62826731 28468732#0 28468732#1 4894996#0 4894996#1 627579930#1 4877791"/>
    </vehicle>
    <vehicle id="veh64" type="veh_passenger" depart="54108.40" departLane="best" departSpeed="max">
        <route edges="5026771 131942152 880140407 25970859#0 25970859#1 502325084#0 502325084#1 502325084#3 782714966#0 782714966#1 311298662#0 311298662#1 835443464 311298658 311298682#0 311298682#1 27149242 -27149243"/>
    </vehicle>
    <vehicle id="veh66" type="veh_passenger" depart="54112.10" departLane="best" departSpeed="max">
        <route edges="-5197045#1 -5197045#0 -37628709#0 -880137010 782714970 58621262#0 58621262#1 880137009#0 880137009#1 783907721#0 783907721#1 783907721#2 782714971#0 782714971#1 782714971#2 782714971#3 782714971#4 111681903#0 111681903#1 111681903#2 111681903#3 120682114#1 120682114#2 5197061#0 5197061#1 5197061#2 5197061#3"/>
    </vehicle>
    <vehicle id="veh67" type="veh_passenger" depart="54113.95" departLane="best" departSpeed="max">
        <route edges="-gneE4 gneE3 -gneE2 -74277990 -7365262 -835445203 -24337240#7 -24337240#6 -24337240#4 -24337240#3 -24337240#2 -24337240#1 -24337240#0 -120682114#3 -120682114#2 -120682114#1 -111681903#3 -111681903#2 -111681903#1 -111681903#0 -782714971#4 -782714971#3 -782714971#2 -782714971#1 -782714971#0 -783907721#2 -783907721#1 -783907721#0 -880137009#1 -880137009#0 747448014 782714970 -311298665 -535519490#1 -535519490#0 -4895001#0 -4935286#3 -4935286#2 5236308#1 -5236308#1 4935286#2 4935286#3 -5026771"/>
    </vehicle>
    <vehicle id="veh68" type="veh_passenger" depart="54115.80" departLane="best">
        <route edges="26943536#1 -111677668#4 -111677668#3 -111677668#0 -835445203 -24337240#7 -24337240#6 -24337240#4 -24337240#3 -24337240#2 -24337240#1 -24337240#0 -120682114#3 -120682114#2 -120682114#1 -111681903#3 -111681903#2 -111681903#1 -111681903#0 -40009020#7 -40009020#6 -40009020#5 -40009020#4 -40009020#3 -40009020#0 4877791"/>
    </vehicle>
    <vehicle id="veh69" type="veh_passenger" depart="54117.65" departLane="best" departSpeed="max">
        <route edges="-4877791 -627579930#1 4894996#2 4894996#3 -4877788#6 -4877788#5 -4877788#4 -4877788#2 -4877788#1 -4877788#0 -311298685 7924755 -5029409#1 -5029408"/>
    </vehicle>
    <vehicle id="veh70" type="veh_passenger" depart="54119.50" departLane="best" departSpeed="max">
        <route edges="96687079#0 96687079#1 96687079#2 96687079#3 96687079#4 274763815#0 274763815#1 -835443464 -311298662#1 -311298662#0 -782714966#1 -782714966#0 -502325084#3 -502325084#1 -502325084#0 -25970859#1 -25970859#0 -880140407 -4895001#0 -4935286#3 -4935286#2 -4935286#1 -4935286#0 4935287#0 4935287#1 4935287#2 783647325#0 783647325#1 26216780#0 26216780#1 26216780#2"/>
    </vehicle>
    <vehicle id="veh71" type="veh_passenger" depart="54121.35" departLane="best" departSpeed="max">
        <route edges="-gneE4 gneE3 -gneE2 -74277990 -7365262 111677668#0 111677668#3 111677668#4 111677671#0 111677671#1"/>
    </vehicle>
    <vehicle id="veh72" type="veh_passenger" depart="54123.20" departLane="best" departSpeed="max">