<configuration>
	<input>
		<net-file value="../Netzmodell2.net.xml"/>
		<route-files value="osm.passenger.rou.xml"/>
		<additional-files value="../additional.add.xml"/>
		<gui-settings-file value="../settings.xml"/>
		<output-prefix value="routeSampler/"/>
	</input>
	<time>
		<begin value="53990"/>
		<end value="61000"/>
	</time>
</configuration>