<?xml version="1.0" encoding="UTF-8"?>

<additional xmlns:xsi="http://www.w3.org/2001/XMLSchema-instance" xsi:noNamespaceSchemaLocation="http://sumo.dlr.de/xsd/additional_file.xsd">
    <poly id="poly_0" color="blue" fill="0" layer="128.00" shape="2000,99500 2000,40000 95000,40000.0 95000,99500 2000,99500"/>

    <poi id="A7_N_Ein_35011392" color="green" lat="52.577917" lon="9.773351"/>
    <poi id="A7_N_Aus_332893825" color="red" lat="52.577959" lon="9.773665"/>
    <poi id="B3_N_147712900" color="yellow" lat="52.575623" lon="10.077048"/>
    <poi id="B214_N_533481897" color="yellow" lat="52.577637" lon="10.124718"/>
    <poi id="B4_N_165150580" color="yellow" lat="52.561877" lon="10.508189"/>
    <poi id="B248_N_26333717" color="yellow" lat="52.553846" lon="10.786744"/>
    <poi id="B244_N_128531852" color="yellow" lat="52.549993" lon="10.913045"/>

    <poi id="B188_O_259276852" color="yellow" lat="52.444477" lon="10.973302"/>
    <poi id="B244_O_140044518" color="yellow" lat="52.332652" lon="10.967542"/>
    <poi id="A2_Ost_Ein_270367431" color="green" lat="52.268945" lon="10.964286"/>
    <poi id="A2_Ost_Aus_270367419" color="red" lat="52.268658" lon="10.964237"/>
    <poi id="B1_O_239134670" color="yellow" lat="52.226025" lon="10.962043"/>
    <poi id="B244_O_311877744" color="yellow" lat="52.141228" lon="10.960944"/>

    <poi id="B244_S_29086492#1" color="yellow" lat="52.030369" lon="10.892314"/>
    <poi id="B79_S_78071471" color="yellow" lat="52.032261" lon="10.769611"/>
    <poi id="B82_S_372475953" color="yellow" lat="52.044457" lon="10.615080"/>
    <poi id="A36_S_Ein_332880784" color="green" lat="52.035800" lon="10.515806"/>
    <poi id="A36_S_Aus_332880775" color="red" lat="52.035818" lon="10.515582"/>
    <poi id="B6_B248_S_Ein_367304903" color="green" lat="52.037788" lon="10.355783"/>
    <poi id="B6_B248_S_Aus_238218009" color="red" lat="52.037785" lon="10.355600"/>
    <poi id="A7_S_Ein_83397465" color="green" lat="52.039692" lon="10.177562"/>
    <poi id="A7_S_Aus_332669323" color="red" lat="52.039672" lon="10.177200"/>
    <poi id="B243_S_397782238" color="yellow" lat="52.040604" lon="10.084263"/>
    <poi id="B3_S_182135986" color="yellow" lat="52.043147" lon="9.759795"/>
    <poi id="B240_S_858608969" color="yellow" lat="52.043516" lon="9.693768"/>

    <poi id="B1_W_45060238#1" color="yellow" lat="52.084158" lon="9.601223"/>
    <poi id="B217_W_Ein_373587106" color="green" lat="52.216941" lon="9.602887"/>
    <poi id="B217_W_Aus_30281615#0" color="red" lat="52.217008" lon="9.602903"/>
    <poi id="B65_W_238110551" color="yellow" lat="52.333117" lon="9.606223"/>
    <poi id="B441_W_722930595" color="yellow" lat="52.388326" lon="9.605230"/>
    <poi id="A2_W_Ein_25427143" color="green" lat="52.422420" lon="9.605661"/>
    <poi id="A2_W_Aus_270484560" color="red" lat="52.422643" lon="9.605681"/>
    <poi id="B6_W_253778630#0" color="yellow" lat="52.431602" lon="9.610513"/>
</additional>
