<routes xmlns:xsi="http://www.w3.org/2001/XMLSchema-instance" xsi:noNamespaceSchemaLocation="http://sumo.dlr.de/xsd/routes_file.xsd">
    <trip depart="0.00" departLane="best" departSpeed="max" from="-gneE114" id="LKW0" to="142944405" type="LKW_special" />
    <trip depart="3.51" departLane="best" departSpeed="max" from="-521056835" id="LKW1" to="44532531" type="LKW_special" />
    <trip depart="7.02" departLane="best" departSpeed="max" from="252843131#0" id="LKW2" to="521045493" type="LKW_special" />
    <trip depart="10.54" departLane="best" departSpeed="max" from="6243477#1.53" id="LKW3" to="39978006#3" type="LKW_special" />
    <trip depart="14.05" departLane="best" departSpeed="max" from="20439110#0" id="LKW4" to="gneE3" type="LKW_special" />
    <trip depart="17.56" departLane="best" departSpeed="max" from="-gneE114" id="LKW5" to="4919145" type="LKW_special" />
    <trip depart="21.07" departLane="best" departSpeed="max" from="20439110#0" id="LKW6" to="gneE3" type="LKW_special" />
    <trip depart="24.59" departLane="best" departSpeed="max" from="gneE87" id="LKW7" to="521056835" type="LKW_special" />
    <trip depart="28.10" departLane="best" departSpeed="max" from="22729790#0" id="LKW8" to="39978006#3" type="LKW_special" />
    <trip depart="31.61" departLane="best" departSpeed="max" from="43145235#2" id="LKW9" to="-144911428#0" type="LKW_special" />
    <trip depart="35.12" departLane="best" departSpeed="max" from="22697609" id="LKW10" to="50381783#1" type="LKW_special" />
    <trip depart="38.63" departLane="best" departSpeed="max" from="gneE4" id="LKW11" to="24400729#1" type="LKW_special" />
    <trip depart="42.15" departLane="best" departSpeed="max" from="gneE4" id="LKW12" to="22744203#1" type="LKW_special" />
    <trip depart="45.66" departLane="best" departSpeed="max" from="199500676" id="LKW13" to="39088967#0" type="LKW_special" />
    <trip depart="49.17" departLane="best" departSpeed="max" from="gneE116" id="LKW14" to="50381783#1" type="LKW_special" />
    <trip depart="52.68" departLane="best" departSpeed="max" from="gneE116" id="LKW15" to="50381783#1" type="LKW_special" />
    <trip depart="56.20" departLane="best" departSpeed="max" from="20439110#0" id="LKW16" to="gneE3" type="LKW_special" />
    <trip depart="59.71" departLane="best" departSpeed="max" from="gneE116" id="LKW17" to="35744220#1" type="LKW_special" />
    <trip depart="63.22" departLane="best" departSpeed="max" from="43145235#2" id="LKW18" to="gneE152" type="LKW_special" />
    <trip depart="66.73" departLane="best" departSpeed="max" from="20439110#0" id="LKW19" to="gneE3" type="LKW_special" />
    <trip depart="70.24" departLane="best" departSpeed="max" from="-678902926#1" id="LKW20" to="39978006#3" type="LKW_special" />
    <trip depart="73.76" departLane="best" departSpeed="max" from="606439147#5" id="LKW21" to="-gneE116" type="LKW_special" />
    <trip depart="77.27" departLane="best" departSpeed="max" from="391787295#2" id="LKW22" to="44532531" type="LKW_special" />
    <trip depart="80.78" departLane="best" departSpeed="max" from="gneE116" id="LKW23" to="50381783#1" type="LKW_special" />
    <trip depart="84.29" departLane="best" departSpeed="max" from="362127466#1" id="LKW24" to="gneE21" type="LKW_special" />
    <trip depart="87.80" departLane="best" departSpeed="max" from="142954639#0" id="LKW25" to="143065638#2" type="LKW_special" />
    <trip depart="91.32" departLane="best" departSpeed="max" from="362127466#1" id="LKW26" to="gneE21" type="LKW_special" />
    <trip depart="94.83" departLane="best" departSpeed="max" from="43145235#2" id="LKW27" to="172289065#2" type="LKW_special" />
    <trip depart="98.34" departLane="best" departSpeed="max" from="144911428#0" id="LKW28" to="gneE152" type="LKW_special" />
    <trip depart="101.85" departLane="best" departSpeed="max" from="39088985#0" id="LKW29" to="44532531" type="LKW_special" />
    <trip depart="105.37" departLane="best" departSpeed="max" from="gneE4" id="LKW30" to="158325320#1" type="LKW_special" />
    <trip depart="108.88" departLane="best" departSpeed="max" from="391787295#2" id="LKW31" to="44532531" type="LKW_special" />
    <trip depart="112.39" departLane="best" departSpeed="max" from="gneE4" id="LKW32" to="143065638#2" type="LKW_special" />
    <trip depart="115.90" departLane="best" departSpeed="max" from="33890764#0" id="LKW33" to="gneE21" type="LKW_special" />
    <trip depart="119.41" departLane="best" departSpeed="max" from="22729790#0" id="LKW34" to="39978006#3" type="LKW_special" />
    <trip depart="122.93" departLane="best" departSpeed="max" from="3753109" id="LKW35" to="381750337" type="LKW_special" />
    <trip depart="126.44" departLane="best" departSpeed="max" from="39088985#0" id="LKW36" to="44532531" type="LKW_special" />
    <trip depart="129.95" departLane="best" departSpeed="max" from="gneE116" id="LKW37" to="50381783#1" type="LKW_special" />
    <trip depart="133.46" departLane="best" departSpeed="max" from="-26810395#1" id="LKW38" to="5217066" type="LKW_special" />
    <trip depart="136.98" departLane="best" departSpeed="max" from="186239191#1" id="LKW39" to="39978006#3" type="LKW_special" />
    <trip depart="140.49" departLane="best" departSpeed="max" from="gneE4" id="LKW40" to="252843138#12" type="LKW_special" />
    <trip depart="144.00" departLane="best" departSpeed="max" from="-521056835" id="LKW41" to="39088985#0.48" type="LKW_special" />
    <trip depart="147.51" departLane="best" departSpeed="max" from="-521056835" id="LKW42" to="26810395#1" type="LKW_special" />
    <trip depart="151.02" departLane="best" departSpeed="max" from="gneE4" id="LKW43" to="143065638#2" type="LKW_special" />
    <trip depart="154.54" departLane="best" departSpeed="max" from="20439110#0" id="LKW44" to="gneE3" type="LKW_special" />
    <trip depart="158.05" departLane="best" departSpeed="max" from="33890764#0" id="LKW45" to="39978006#3" type="LKW_special" />
    <trip depart="161.56" departLane="best" departSpeed="max" from="-521056835" id="LKW46" to="39088985#0.48" type="LKW_special" />
    <trip depart="165.07" departLane="best" departSpeed="max" from="-gneE114" id="LKW47" to="142944405" type="LKW_special" />
    <trip depart="168.59" departLane="best" departSpeed="max" from="362127466#1" id="LKW48" to="gneE21" type="LKW_special" />
    <trip depart="172.10" departLane="best" departSpeed="max" from="3753109" id="LKW49" to="381750337" type="LKW_special" />
    <trip depart="175.61" departLane="best" departSpeed="max" from="4218887#0" id="LKW50" to="gneE114" type="LKW_special" />
    <trip depart="179.12" departLane="best" departSpeed="max" from="6243477#1.53" id="LKW51" to="39978006#3" type="LKW_special" />
    <trip depart="182.63" departLane="best" departSpeed="max" from="144911428#0" id="LKW52" to="gneE143" type="LKW_special" />
    <trip depart="186.15" departLane="best" departSpeed="max" from="gneE116" id="LKW53" to="50381783#1" type="LKW_special" />
    <trip depart="189.66" departLane="best" departSpeed="max" from="-158325332#2" id="LKW54" to="39978006#3" type="LKW_special" />
    <trip depart="193.17" departLane="best" departSpeed="max" from="-gneE154" id="LKW55" to="-gneE116" type="LKW_special" />
    <trip depart="196.68" departLane="best" departSpeed="max" from="-gneE114" id="LKW56" to="142944405" type="LKW_special" />
    <trip depart="200.20" departLane="best" departSpeed="max" from="22697759#2" id="LKW57" to="-gneE116" type="LKW_special" />
    <trip depart="203.71" departLane="best" departSpeed="max" from="22649703#3" id="LKW58" to="-551319347#5" type="LKW_special" />
    <trip depart="207.22" departLane="best" departSpeed="max" from="gneE116" id="LKW59" to="50381783#1" type="LKW_special" />
    <trip depart="210.73" departLane="best" departSpeed="max" from="-35744220#1" id="LKW60" to="gneE108" type="LKW_special" />
    <trip depart="214.24" departLane="best" departSpeed="max" from="43145235#2" id="LKW61" to="25554897#0" type="LKW_special" />
    <trip depart="217.76" departLane="best" departSpeed="max" from="4218887#0" id="LKW62" to="39978006#3" type="LKW_special" />
    <trip depart="221.27" departLane="best" departSpeed="max" from="43145235#2" id="LKW63" to="4275522#6" type="LKW_special" />
    <trip depart="224.78" departLane="best" departSpeed="max" from="-22131088#0" id="LKW64" to="gneE3" type="LKW_special" />
    <trip depart="228.29" departLane="best" departSpeed="max" from="-gneE95" id="LKW65" to="381750337" type="LKW_special" />
    <trip depart="231.80" departLane="best" departSpeed="max" from="gneE116" id="LKW66" to="-8663642" type="LKW_special" />
    <trip depart="235.32" departLane="best" departSpeed="max" from="gneE116" id="LKW67" to="50381783#1" type="LKW_special" />
    <trip depart="238.83" departLane="best" departSpeed="max" from="20439110#0" id="LKW68" to="gneE3" type="LKW_special" />
    <trip depart="242.34" departLane="best" departSpeed="max" from="-158325332#2" id="LKW69" to="39978006#3" type="LKW_special" />
    <trip depart="245.85" departLane="best" departSpeed="max" from="39088985#0" id="LKW70" to="44532531" type="LKW_special" />
    <trip depart="249.37" departLane="best" departSpeed="max" from="566711291" id="LKW71" to="252843886#0" type="LKW_special" />
    <trip depart="252.88" departLane="best" departSpeed="max" from="20439102#1.25" id="LKW72" to="gneE21" type="LKW_special" />
    <trip depart="256.39" departLane="best" departSpeed="max" from="4275522#3" id="LKW73" to="252843886#0" type="LKW_special" />
    <trip depart="259.90" departLane="best" departSpeed="max" from="252843131#0" id="LKW74" to="521056835" type="LKW_special" />
    <trip depart="263.41" departLane="best" departSpeed="max" from="362127466#1" id="LKW75" to="gneE21" type="LKW_special" />
    <trip depart="266.93" departLane="best" departSpeed="max" from="gneE116" id="LKW76" to="50381783#1" type="LKW_special" />
    <trip depart="270.44" departLane="best" departSpeed="max" from="606439147#5" id="LKW77" to="-gneE116" type="LKW_special" />
    <trip depart="273.95" departLane="best" departSpeed="max" from="-20439110#5" id="LKW78" to="39978006#3" type="LKW_special" />
    <trip depart="277.46" departLane="best" departSpeed="max" from="22729790#0" id="LKW79" to="39978006#3" type="LKW_special" />
    <trip depart="280.98" departLane="best" departSpeed="max" from="-35744220#1" id="LKW80" to="gneE3" type="LKW_special" />
    <trip depart="284.49" departLane="best" departSpeed="max" from="22729790#0" id="LKW81" to="39978006#3" type="LKW_special" />
    <trip depart="288.00" departLane="best" departSpeed="max" from="6243477#1.53" id="LKW82" to="39978006#3" type="LKW_special" />
    <trip depart="291.51" departLane="best" departSpeed="max" from="24288798#0" id="LKW83" to="44532531" type="LKW_special" />
    <trip depart="295.02" departLane="best" departSpeed="max" from="-gneE114" id="LKW84" to="44578241#4" type="LKW_special" />
    <trip depart="298.54" departLane="best" departSpeed="max" from="gneE87" id="LKW85" to="521045493" type="LKW_special" />
    <trip depart="302.05" departLane="best" departSpeed="max" from="20439110#0" id="LKW86" to="gneE3" type="LKW_special" />
    <trip depart="305.56" departLane="best" departSpeed="max" from="-gneE114" id="LKW87" to="-22661122#1" type="LKW_special" />
    <trip depart="309.07" departLane="best" departSpeed="max" from="43145235#2" id="LKW88" to="172289065#2" type="LKW_special" />
    <trip depart="312.59" departLane="best" departSpeed="max" from="43145235#2" id="LKW89" to="172289065#2" type="LKW_special" />
    <trip depart="316.10" departLane="best" departSpeed="max" from="-5213129#1" id="LKW90" to="50381783#1" type="LKW_special" />
    <trip depart="319.61" departLane="best" departSpeed="max" from="gneE4" id="LKW91" to="252843886#0" type="LKW_special" />
    <trip depart="323.12" departLane="best" departSpeed="max" from="22729790#0" id="LKW92" to="39978006#3" type="LKW_special" />
    <trip depart="326.63" departLane="best" departSpeed="max" from="158325319#0" id="LKW93" to="gneE3" type="LKW_special" />
    <trip depart="330.15" departLane="best" departSpeed="max" from="142954620" id="LKW94" to="381750337" type="LKW_special" />
    <trip depart="333.66" departLane="best" departSpeed="max" from="-gneE114" id="LKW95" to="142944405" type="LKW_special" />
    <trip depart="337.17" departLane="best" departSpeed="max" from="-142954639#8" id="LKW96" to="gneE3" type="LKW_special" />
    <trip depart="340.68" departLane="best" departSpeed="max" from="24288798#0" id="LKW97" to="44532531" type="LKW_special" />
    <trip depart="344.20" departLane="best" departSpeed="max" from="26923040" id="LKW98" to="39978006#3" type="LKW_special" />
    <trip depart="347.71" departLane="best" departSpeed="max" from="-gneE154" id="LKW99" to="-gneE116" type="LKW_special" />
    <trip depart="351.22" departLane="best" departSpeed="max" from="43145235#2" id="LKW100" to="gneE12" type="LKW_special" />
    <trip depart="354.73" departLane="best" departSpeed="max" from="-gneE114" id="LKW101" to="39978006#3" type="LKW_special" />
    <trip depart="358.24" departLane="best" departSpeed="max" from="4275522#5" id="LKW102" to="gneE90" type="LKW_special" />
    <trip depart="361.76" departLane="best" departSpeed="max" from="43145235#2" id="LKW103" to="gneE108" type="LKW_special" />
    <trip depart="365.27" departLane="best" departSpeed="max" from="20439110#0" id="LKW104" to="gneE3" type="LKW_special" />
    <trip depart="368.78" departLane="best" departSpeed="max" from="43145235#2" id="LKW105" to="-144911428#0" type="LKW_special" />
    <trip depart="372.29" departLane="best" departSpeed="max" from="gneE4" id="LKW106" to="22744203#1" type="LKW_special" />
    <trip depart="375.80" departLane="best" departSpeed="max" from="gneE4" id="LKW107" to="gneE114" type="LKW_special" />
    <trip depart="379.32" departLane="best" departSpeed="max" from="gneE87" id="LKW108" to="-566711291" type="LKW_special" />
    <trip depart="382.83" departLane="best" departSpeed="max" from="199500676" id="LKW109" to="521056835" type="LKW_special" />
    <trip depart="386.34" departLane="best" departSpeed="max" from="gneE4" id="LKW110" to="143065638#2" type="LKW_special" />
    <trip depart="389.85" departLane="best" departSpeed="max" from="-35744220#1" id="LKW111" to="gneE3" type="LKW_special" />
    <trip depart="393.37" departLane="best" departSpeed="max" from="24288798#0" id="LKW112" to="44532531" type="LKW_special" />
    <trip depart="396.88" departLane="best" departSpeed="max" from="-gneE114" id="LKW113" to="142944405" type="LKW_special" />
    <trip depart="400.39" departLane="best" departSpeed="max" from="gneE4" id="LKW114" to="gneE143" type="LKW_special" />
    <trip depart="403.90" departLane="best" departSpeed="max" from="-gneE114" id="LKW115" to="35744220#1" type="LKW_special" />
    <trip depart="407.41" departLane="best" departSpeed="max" from="43145235#2" id="LKW116" to="gneE3" type="LKW_special" />
    <trip depart="410.93" departLane="best" departSpeed="max" from="24288798#0" id="LKW117" to="44532531" type="LKW_special" />
    <trip depart="414.44" departLane="best" departSpeed="max" from="20439110#0" id="LKW118" to="gneE3" type="LKW_special" />
    <trip depart="417.95" departLane="best" departSpeed="max" from="22697759#2" id="LKW119" to="-gneE116" type="LKW_special" />
    <trip depart="421.46" departLane="best" departSpeed="max" from="gneE4" id="LKW120" to="143065638#2" type="LKW_special" />
    <trip depart="424.98" departLane="best" departSpeed="max" from="-521056835" id="LKW121" to="39088985#0.48" type="LKW_special" />
    <trip depart="428.49" departLane="best" departSpeed="max" from="22649703#3" id="LKW122" to="-8300803#3" type="LKW_special" />
    <trip depart="432.00" departLane="best" departSpeed="max" from="gneE4" id="LKW123" to="4919145" type="LKW_special" />
    <trip depart="435.51" departLane="best" departSpeed="max" from="158325319#0" id="LKW124" to="39978006#3" type="LKW_special" />
    <trip depart="439.02" departLane="best" departSpeed="max" from="-25554897#0" id="LKW125" to="gneE114" type="LKW_special" />
    <trip depart="442.54" departLane="best" departSpeed="max" from="-158325332#2" id="LKW126" to="gneE3" type="LKW_special" />
    <trip depart="446.05" departLane="best" departSpeed="max" from="-5213129#1" id="LKW127" to="50381783#1" type="LKW_special" />
    <trip depart="449.56" departLane="best" departSpeed="max" from="199500676" id="LKW128" to="495849380" type="LKW_special" />
    <trip depart="453.07" departLane="best" departSpeed="max" from="-521056835" id="LKW129" to="39088985#0.48" type="LKW_special" />
    <trip depart="456.59" departLane="best" departSpeed="max" from="551319351#0" id="LKW130" to="27260008#0" type="LKW_special" />
    <trip depart="460.10" departLane="best" departSpeed="max" from="391787295#2" id="LKW131" to="44532531" type="LKW_special" />
    <trip depart="463.61" departLane="best" departSpeed="max" from="391787295#2" id="LKW132" to="44532531" type="LKW_special" />
    <trip depart="467.12" departLane="best" departSpeed="max" from="gneE4" id="LKW133" to="143065638#2" type="LKW_special" />
    <trip depart="470.63" departLane="best" departSpeed="max" from="362127466#1" id="LKW134" to="gneE21" type="LKW_special" />
    <trip depart="474.15" departLane="best" departSpeed="max" from="39088985#0" id="LKW135" to="44532531" type="LKW_special" />
    <trip depart="477.66" departLane="best" departSpeed="max" from="-521056835" id="LKW136" to="26810395#1" type="LKW_special" />
    <trip depart="481.17" departLane="best" departSpeed="max" from="252843131#0" id="LKW137" to="521056835" type="LKW_special" />
    <trip depart="484.68" departLane="best" departSpeed="max" from="-158325332#2" id="LKW138" to="39978006#3" type="LKW_special" />
    <trip depart="488.20" departLane="best" departSpeed="max" from="4218887#0" id="LKW139" to="gneE114" type="LKW_special" />
    <trip depart="491.71" departLane="best" departSpeed="max" from="gneE111" id="LKW140" to="gneE3" type="LKW_special" />
    <trip depart="495.22" departLane="best" departSpeed="max" from="606439147#5" id="LKW141" to="-gneE116" type="LKW_special" />
    <trip depart="498.73" departLane="best" departSpeed="max" from="gneE87" id="LKW142" to="521056835" type="LKW_special" />
    <trip depart="502.24" departLane="best" departSpeed="max" from="26923040" id="LKW143" to="39978006#3" type="LKW_special" />
    <trip depart="505.76" departLane="best" departSpeed="max" from="43145235#2" id="LKW144" to="172289065#2" type="LKW_special" />
    <trip depart="509.27" departLane="best" departSpeed="max" from="22649703#3" id="LKW145" to="142677518.23" type="LKW_special" />
    <trip depart="512.78" departLane="best" departSpeed="max" from="-gneE114" id="LKW146" to="142944405" type="LKW_special" />
    <trip depart="516.29" departLane="best" departSpeed="max" from="8300803#3" id="LKW147" to="-551319347#5" type="LKW_special" />
    <trip depart="519.80" departLane="best" departSpeed="max" from="43145235#2" id="LKW148" to="gneE108" type="LKW_special" />
    <trip depart="523.32" departLane="best" departSpeed="max" from="39977142" id="LKW149" to="gneE3" type="LKW_special" />
    <trip depart="526.83" departLane="best" departSpeed="max" from="39088985#0" id="LKW150" to="44532531" type="LKW_special" />
    <trip depart="530.34" departLane="best" departSpeed="max" from="39088985#0" id="LKW151" to="44532531" type="LKW_special" />
    <trip depart="533.85" departLane="best" departSpeed="max" from="gneE116" id="LKW152" to="50381783#1" type="LKW_special" />
    <trip depart="537.37" departLane="best" departSpeed="max" from="4044261#0" id="LKW153" to="gneE92" type="LKW_special" />
    <trip depart="540.88" departLane="best" departSpeed="max" from="43145235#2" id="LKW154" to="-566711291" type="LKW_special" />
    <trip depart="544.39" departLane="best" departSpeed="max" from="43145235#2" id="LKW155" to="23925231" type="LKW_special" />
    <trip depart="547.90" departLane="best" departSpeed="max" from="gneE94" id="LKW156" to="22131088#0" type="LKW_special" />
    <trip depart="551.41" departLane="best" departSpeed="max" from="-521056835" id="LKW157" to="24400729#1" type="LKW_special" />
    <trip depart="554.93" departLane="best" departSpeed="max" from="22649703#3" id="LKW158" to="-252378410#1" type="LKW_special" />
    <trip depart="558.44" departLane="best" departSpeed="max" from="156559295#0" id="LKW159" to="428959012" type="LKW_special" />
    <trip depart="561.95" departLane="best" departSpeed="max" from="-gneE114" id="LKW160" to="370073259" type="LKW_special" />
    <trip depart="565.46" departLane="best" departSpeed="max" from="gneE116" id="LKW161" to="50381783#1" type="LKW_special" />
    <trip depart="568.98" departLane="best" departSpeed="max" from="gneE94" id="LKW162" to="gneE92" type="LKW_special" />
    <trip depart="572.49" departLane="best" departSpeed="max" from="gneE4" id="LKW163" to="gneE143" type="LKW_special" />
    <trip depart="576.00" departLane="best" departSpeed="max" from="401531644" id="LKW164" to="252843886#0" type="LKW_special" />
    <trip depart="579.51" departLane="best" departSpeed="max" from="-gneE95" id="LKW165" to="51214742#0" type="LKW_special" />
    <trip depart="583.02" departLane="best" departSpeed="max" from="199500676" id="LKW166" to="521056835" type="LKW_special" />
    <trip depart="586.54" departLane="best" departSpeed="max" from="538341579#0" id="LKW167" to="521056835" type="LKW_special" />
    <trip depart="590.05" departLane="best" departSpeed="max" from="43145235#2" id="LKW168" to="172289065#2" type="LKW_special" />
    <trip depart="593.56" departLane="best" departSpeed="max" from="22729790#0" id="LKW169" to="39978006#3" type="LKW_special" />
    <trip depart="597.07" departLane="best" departSpeed="max" from="-158325332#2" id="LKW170" to="39978006#3" type="LKW_special" />
    <trip depart="600.59" departLane="best" departSpeed="max" from="-gneE114" id="LKW171" to="142944405" type="LKW_special" />
    <trip depart="604.10" departLane="best" departSpeed="max" from="gneE4" id="LKW172" to="143065638#2" type="LKW_special" />
    <trip depart="607.61" departLane="best" departSpeed="max" from="6243477#1.53" id="LKW173" to="39978006#3" type="LKW_special" />
    <trip depart="611.12" departLane="best" departSpeed="max" from="-521056835" id="LKW174" to="39088985#0.48" type="LKW_special" />
    <trip depart="614.63" departLane="best" departSpeed="max" from="43145235#2" id="LKW175" to="gneE3" type="LKW_special" />
    <trip depart="618.15" departLane="best" departSpeed="max" from="39088985#0" id="LKW176" to="44532531" type="LKW_special" />
    <trip depart="621.66" departLane="best" departSpeed="max" from="566711291" id="LKW177" to="252843886#0" type="LKW_special" />
    <trip depart="625.17" departLane="best" departSpeed="max" from="199500676" id="LKW178" to="521056835" type="LKW_special" />
    <trip depart="628.68" departLane="best" departSpeed="max" from="33890764#0" id="LKW179" to="gneE21" type="LKW_special" />
    <trip depart="632.20" departLane="best" departSpeed="max" from="39088985#0" id="LKW180" to="44532531" type="LKW_special" />
    <trip depart="635.71" departLane="best" departSpeed="max" from="43145235#2" id="LKW181" to="172289065#2" type="LKW_special" />
    <trip depart="639.22" departLane="best" departSpeed="max" from="199500676" id="LKW182" to="495849380" type="LKW_special" />
    <trip depart="642.73" departLane="best" departSpeed="max" from="158325319#0" id="LKW183" to="39978006#3" type="LKW_special" />
    <trip depart="646.24" departLane="best" departSpeed="max" from="39088985#0" id="LKW184" to="44532531" type="LKW_special" />
    <trip depart="649.76" departLane="best" departSpeed="max" from="-521056835" id="LKW185" to="26810395#1" type="LKW_special" />
    <trip depart="653.27" departLane="best" departSpeed="max" from="172289065#2" id="LKW186" to="gneE108" type="LKW_special" />
    <trip depart="656.78" departLane="best" departSpeed="max" from="172289065#1" id="LKW187" to="gneE109" type="LKW_special" />
    <trip depart="660.29" departLane="best" departSpeed="max" from="538341579#0" id="LKW188" to="521045493" type="LKW_special" />
    <trip depart="663.80" departLane="best" departSpeed="max" from="391787295#2" id="LKW189" to="44532531" type="LKW_special" />
    <trip depart="667.32" departLane="best" departSpeed="max" from="gneE4" id="LKW190" to="-22661122#1" type="LKW_special" />
    <trip depart="670.83" departLane="best" departSpeed="max" from="20439110#0" id="LKW191" to="gneE3" type="LKW_special" />
    <trip depart="674.34" departLane="best" departSpeed="max" from="43145235#2" id="LKW192" to="22729790#1" type="LKW_special" />
    <trip depart="677.85" departLane="best" departSpeed="max" from="20439110#0" id="LKW193" to="gneE3" type="LKW_special" />
    <trip depart="681.37" departLane="best" departSpeed="max" from="43145235#2" id="LKW194" to="25554897#0" type="LKW_special" />
    <trip depart="684.88" departLane="best" departSpeed="max" from="-521056835" id="LKW195" to="44532531" type="LKW_special" />
    <trip depart="688.39" departLane="best" departSpeed="max" from="-gneE114" id="LKW196" to="39978006#3" type="LKW_special" />
    <trip depart="691.90" departLane="best" departSpeed="max" from="20439110#0" id="LKW197" to="gneE3" type="LKW_special" />
    <trip depart="695.41" departLane="best" departSpeed="max" from="gneE4" id="LKW198" to="39978006#3" type="LKW_special" />
    <trip depart="698.93" departLane="best" departSpeed="max" from="-gneE154" id="LKW199" to="-gneE116" type="LKW_special" />
    <trip depart="702.44" departLane="best" departSpeed="max" from="22729790#0" id="LKW200" to="39978006#3" type="LKW_special" />
    <trip depart="705.95" departLane="best" departSpeed="max" from="22815726" id="LKW201" to="158325320#1" type="LKW_special" />
    <trip depart="709.46" departLane="best" departSpeed="max" from="26923040" id="LKW202" to="39978006#3" type="LKW_special" />
    <trip depart="712.98" departLane="best" departSpeed="max" from="-521056835" id="LKW203" to="44532531" type="LKW_special" />
    <trip depart="716.49" departLane="best" departSpeed="max" from="20439110#0" id="LKW204" to="gneE3" type="LKW_special" />
    <trip depart="720.00" departLane="best" departSpeed="max" from="-4275522#6" id="LKW205" to="gneE3" type="LKW_special" />
    <trip depart="723.51" departLane="best" departSpeed="max" from="144911428#0" id="LKW206" to="gneE108" type="LKW_special" />
    <trip depart="727.02" departLane="best" departSpeed="max" from="gneE4" id="LKW207" to="39978006#3" type="LKW_special" />
    <trip depart="730.54" departLane="best" departSpeed="max" from="gneE4" id="LKW208" to="gneE114" type="LKW_special" />
    <trip depart="734.05" departLane="best" departSpeed="max" from="43145235#2" id="LKW209" to="gneE152" type="LKW_special" />
    <trip depart="737.56" departLane="best" departSpeed="max" from="-gneE114" id="LKW210" to="4919145" type="LKW_special" />
    <trip depart="741.07" departLane="best" departSpeed="max" from="-44135328#0" id="LKW211" to="51214742#0" type="LKW_special" />
    <trip depart="744.59" departLane="best" departSpeed="max" from="-gneE114" id="LKW212" to="142944405" type="LKW_special" />
    <trip depart="748.10" departLane="best" departSpeed="max" from="43145235#2" id="LKW213" to="172289065#2" type="LKW_special" />
    <trip depart="751.61" departLane="best" departSpeed="max" from="186239191#1" id="LKW214" to="39978006#3" type="LKW_special" />
    <trip depart="755.12" departLane="best" departSpeed="max" from="gneE4" id="LKW215" to="22744203#1" type="LKW_special" />
    <trip depart="758.63" departLane="best" departSpeed="max" from="-gneE95" id="LKW216" to="gneE90" type="LKW_special" />
    <trip depart="762.15" departLane="best" departSpeed="max" from="362127466#1" id="LKW217" to="gneE21" type="LKW_special" />
    <trip depart="765.66" departLane="best" departSpeed="max" from="gneE89" id="LKW218" to="gneE92" type="LKW_special" />
    <trip depart="769.17" departLane="best" departSpeed="max" from="-521056835" id="LKW219" to="39088985#0.48" type="LKW_special" />
    <trip depart="772.68" departLane="best" departSpeed="max" from="8663642" id="LKW220" to="39978006#3" type="LKW_special" />
    <trip depart="776.20" departLane="best" departSpeed="max" from="-26810395#1" id="LKW221" to="5217066" type="LKW_special" />
    <trip depart="779.71" departLane="best" departSpeed="max" from="5213127#0" id="LKW222" to="gneE143" type="LKW_special" />
    <trip depart="783.22" departLane="best" departSpeed="max" from="538341579#0" id="LKW223" to="521056835" type="LKW_special" />
    <trip depart="786.73" departLane="best" departSpeed="max" from="43145235#2" id="LKW224" to="172289065#2" type="LKW_special" />
    <trip depart="790.24" departLane="best" departSpeed="max" from="538341579#0" id="LKW225" to="-51193433#5" type="LKW_special" />
    <trip depart="793.76" departLane="best" departSpeed="max" from="-521056835" id="LKW226" to="39088985#0.48" type="LKW_special" />
    <trip depart="797.27" departLane="best" departSpeed="max" from="199500676" id="LKW227" to="521056835" type="LKW_special" />
    <trip depart="800.78" departLane="best" departSpeed="max" from="156559295#0" id="LKW228" to="428959012" type="LKW_special" />
    <trip depart="804.29" departLane="best" departSpeed="max" from="39088985#0" id="LKW229" to="44532531" type="LKW_special" />
    <trip depart="807.80" departLane="best" departSpeed="max" from="-gneE95" id="LKW230" to="24400729#1" type="LKW_special" />
    <trip depart="811.32" departLane="best" departSpeed="max" from="4044261#0" id="LKW231" to="gneE90" type="LKW_special" />