<edges version="1.1" xmlns:xsi="http://www.w3.org/2001/XMLSchema-instance" xsi:noNamespaceSchemaLocation="http://sumo.dlr.de/xsd/edgediff_file.xsd">
    <edge id="296271622#1" numLanes="3"/>

    <edge id="23118706" shape="10.516523,52.258615 10.516793,52.258190"/>
    
    <edge id="47007890" numLanes="2"/>

    <edge id="23209055#0" numLanes="1"/>
    <edge id="23209055#1" numLanes="1"/>
    <edge id="23209055#2" numLanes="1"/>

    <edge id="316682910#0" numLanes="1" allow="tram"/>
    <edge id="316682910#1" numLanes="1" allow="tram"/>
</edges>
