<?xml version="1.0" encoding="UTF-8"?>
<nodes version="1.1" xmlns:xsi="http://www.w3.org/2001/XMLSchema-instance" xsi:noNamespaceSchemaLocation="http://sumo.dlr.de/xsd/nodes_file.xsd">

    <join nodes="1393800666 1393800667 1393800685 1393800691 1393800697 1393800702 1393800713 1393800736 1393800739 1393800746 1393800751 1393800762 1393800766 1553377719 21416918 26153441 28462103 3256063807 3256063811 3256063815 3256063817 3256063818 3256063820 3256063822 3256063823 3256063825 3256063826 3256063827 3256063830 3399986161 52202963 90654809"/>


    <join nodes="1797707620 1797707622 1797723249 1797723251 21402307 2941707328 3239587402 3239587403 3251469155 3251469157 3251469158 3251469160 3251469861 3251469862 3251469866 3251469867 3251469869 3251469872 3251469873 337790340 382464679 3887568673 3887568677 3887568678 3887568692 3906881082 50860512 5529912974 5529912975 5529912976 5529912977 5529912978 5529912979 5529912980 5529912981 655296111 655296129"/>
    <joinExclude nodes="21402306"/>


    <join nodes="26189982 262797983 262797995 28089474 302732738 3144419510 3144419511 3144419512 3144419513" id="A391_AS_Weststadt" type="traffic_light" tl="A391_AS_Weststadt"/>
    <node id="262797985" tl="A391_AS_Weststadt"/>
    <node id="28089476"  tl="A391_AS_Weststadt" type="traffic_light"/>
    <node id="262798000" tl="A391_AS_Weststadt"/>
    <node id="27978463"  tl="A391_AS_Weststadt" type="traffic_light"/>
    <joinExclude nodes="249296949"/>

    <join nodes="1365939799 1365939847 1365939849 382906637 966749888" id="A391_AS_Weststadt2" tl="A391_AS_Weststadt2" type="traffic_light"/>

    <join nodes="3843771996 3843771997 3843772001 3843772003" tl="KennedyPlatz" type="traffic_light"/>
    <join nodes="280598720 280598723 280598728 280598732 28902896 3188117066 3188117067 3188117068"  tl="KennedyPlatz" type="traffic_light"/>
    <join nodes="280598715 28114808 3144373899 3144373900" tl="KennedyPlatz" type="traffic_light"/>
    <join nodes="1289377242 1755789379 1755789393 26193612 275461622 3106556522 3144373880 3144373886 3144373888 3144373889 3155095027 3211302724 3228386963 3228386966 3288085912 3843771246 50917974 52753744 52753757 52753771 5424756609 5424756931 5424756933 5424756934 5424756945 5424756946 5424756947 5424756948" tl="KennedyPlatz" type="traffic_light"/>
    
    <joinExclude nodes="28090300"/>
    <node id="28090300" tl="KennedyPlatz" type="traffic_light"/>
    <node id="251045694" tl="KennedyPlatz" type="traffic_light"/>


    <join nodes="26154203 268401511 287216369 3160041276 3160041277 3160041278 324329718 324329720 324329721 324329723 566713884 59904253 6137452232 6137452256 6137452257 807266986"
        id="A392_AS_Hamburger" tl="A392_AS_Hamburger"/>
    <node id="268401509" tl="A392_AS_Hamburger"/>
    <node id="21559570" tl="A392_AS_Hamburger"/>
    <joinExclude nodes="1169223673 26154204 5671614371"/>

    <join nodes="1582162279 1957249456 28449324 28449325 28449327 3153581354 3155095016 3155104120 3155104123 3155104124 3155104125 3155104129 3155104132 3155104135 3155104137 3155104138 3155104139 3155104143 3155104144 3155104145 3155104146 3155104147 3155104150 3155104153 3209822895 3209822896 3209822897 3209822899 3209822900 3209822901 3209822902 3213129186 34043482 3840808507 3840808508 3840815123 3840815124 51519935 51519940 5426362057 5426362058 5426362059 5426362068 5426362114 5426362115 5426362116 5426362117 5426362237 5426362240 5426362241 5426362242 5426362248 5426362249 5426362250 5426362251"
        id="B4_Wolfenbuetteler"/>
    
    <join nodes="1204081664 1365939757 1365939773 1365939809 1365939857 26153508 28115608 28115614 301224173 966749882 966749884 966749891 1365939735 1365939768 6052498178"
        id="A391_AS_Lehndorf" tl="A391_AS_Lehndorf_tl" type="traffic_light"/>
    <joinExclude nodes="1365939719 1365939940 1365939793"/>
    <node id="1365939719" tl="A391_AS_Lehndorf_tl" type="traffic_light"/>
    <node id="248714091" tl="A391_AS_Lehndorf_tl" type="traffic_light"/>

    <node id="59654717" tl="Rudolfplatz" type="traffic_light"/>
    <node id="26581513" tl="Rudolfplatz" type="traffic_light"/>
    <node id="337769798" tl="Rudolfplatz" type="traffic_light"/>
    <node id="26581511" tl="Rudolfplatz" type="traffic_light"/>
    <node id="59654716" tl="Rudolfplatz" type="traffic_light"/>


    <join nodes="28449356 308809869 308809873 309922829 309922837 309922869 3153585680 3153585681 3153585692 3153585695 3153585697 3153585699 3839995362 5424425342 5424425343 5424425350"
        id="HBF1" tl="HBF" type="traffic_light"/>
    <join nodes="28449355 308809864"
        id="HBF2" tl="HBF" type="traffic_light"/>
    <join nodes="28007010 309922871 309922873 3153585677 3153585685 3153585686 57749871" 
        id="HBF3" tl="HBF" type="traffic_light"/>


    <node id="28201743" keepClear="false"/>


    <join nodes="52780791 1365387509 1365387545 3144404402 3882310981 3882310983 3882310984 3882310985 52780716 30229818 30229835 26189994 3229688645 280598747 280598750 3144404400 3144404401"
        id="Europaplatz1" type="traffic_light" tl="Europaplatz"/>
    <node id="280598619" tl="Europaplatz" type="traffic_light"/>
    <node id="251121910" tl="Europaplatz" type="traffic_light"/>


    <join nodes="104171179 28142770 28298581 5448336392"
        id="Forschungskreuzung" type="traffic_light" tl="Forschungskreuzung"/>

    <!-- Lessingplatz -->
    <joinExclude nodes="26189998 251048978"/>
    
    <join nodes="1248442751 21430661" id="PeinerCeller" type="traffic_light"/>

    <!-- Humboldstr. Gliesmaroder -->
    <join nodes="1306026057 730445054" type="priority"/>
    <join nodes="1306026035 1306026045 1306026053 1306026058 1578503015 1578503020 28201772 3312512383 3312512384 3338276075 3338276076 362628929 5303024523 5303024524 5303024525 5303024526 5303024527 5303617619 5303618657 5303618658 5690103581 5690103582 5690103583 5690103585 5690103602 5690103603 5690103604 5690103605 5690103606 890353089" type="traffic_light" tl="HumboldGliesmaroder"/>
</nodes>
