<routes>
    <trip id="59" type="1" depart="102540">
        <stop busStop="35212" duration="10" />
        <stop busStop="8512" duration="10" />
        <stop busStop="17812" duration="10" />
        <stop busStop="8812" duration="10" />
        <stop busStop="22114" duration="10" />
        <stop busStop="7512" duration="10" />
        <stop busStop="34215" duration="10" />
        <stop lane="27220201#0_0" endPos="0.2" until="104880" parking="true" />
        <stop busStop="34213" duration="10" />
        <stop busStop="7511" duration="10" />
        <stop busStop="22111" duration="10" />
        <stop busStop="8813" duration="10" />
        <stop busStop="17811" duration="10" />
        <stop busStop="8511" duration="10" />
        <stop busStop="35211" duration="10" />
        <stop lane="591178581_0" endPos="0.2" until="106980" parking="true" />
        <stop busStop="35212" duration="10" />
        <stop busStop="8512" duration="10" />
        <stop busStop="17812" duration="10" />
        <stop busStop="8812" duration="10" />
        <stop busStop="22114" duration="10" />
        <stop busStop="7512" duration="10" />
        <stop busStop="34215" duration="10" />
        <stop lane="27220201#0_0" endPos="0.2" until="109200" parking="true" />
        <stop busStop="34213" duration="10" />
        <stop busStop="7511" duration="10" />
        <stop busStop="22111" duration="10" />
        <stop busStop="8813" duration="10" />
        <stop busStop="17811" duration="10" />
        <stop busStop="8511" duration="10" />
        <stop busStop="35211" duration="10" />
        <stop lane="591178581_0" endPos="0.2" until="111480" parking="true" />
        <stop busStop="35212" duration="10" />
        <stop busStop="8512" duration="10" />
        <stop busStop="17812" duration="10" />
        <stop busStop="8812" duration="10" />
        <stop busStop="22114" duration="10" />
        <stop busStop="7512" duration="10" />
        <stop busStop="34215" duration="10" />
        <stop lane="27220201#0_0" endPos="0.2" until="114600" parking="true" />
        <stop busStop="34213" duration="10" />
        <stop busStop="7511" duration="10" />
        <stop busStop="22111" duration="10" />
        <stop busStop="8813" duration="10" />
        <stop busStop="17811" duration="10" />
        <stop busStop="8511" duration="10" />
        <stop busStop="35211" duration="10" />
        <stop lane="591178581_0" endPos="0.2" until="116880" parking="true" />
        <stop busStop="35212" duration="10" />
        <stop busStop="8512" duration="10" />
        <stop busStop="17812" duration="10" />
        <stop busStop="8812" duration="10" />
        <stop busStop="22114" duration="10" />
        <stop busStop="7512" duration="10" />
        <stop busStop="34215" duration="10" />
        <stop lane="27220201#0_0" endPos="0.2" until="120000" parking="true" />
        <stop busStop="34213" duration="10" />
        <stop busStop="7511" duration="10" />
        <stop busStop="22111" duration="10" />
        <stop busStop="8813" duration="10" />
        <stop busStop="17811" duration="10" />
        <stop busStop="8511" duration="10" />
        <stop busStop="35211" duration="10" />
        <stop lane="591178581_0" endPos="0.2" until="122280" parking="true" />
        <stop busStop="35212" duration="10" />
        <stop busStop="8512" duration="10" />
        <stop busStop="17812" duration="10" />
        <stop busStop="8812" duration="10" />
        <stop busStop="22114" duration="10" />
        <stop busStop="7512" duration="10" />
        <stop busStop="34215" duration="10" />
        <stop lane="27220201#0_0" endPos="0.2" until="125400" parking="true" />
        <stop busStop="34213" duration="10" />
        <stop busStop="7511" duration="10" />
        <stop busStop="22111" duration="10" />
        <stop busStop="8813" duration="10" />
        <stop busStop="17811" duration="10" />
        <stop busStop="8511" duration="10" />
        <stop busStop="35211" duration="10" />
        <stop lane="591178581_0" endPos="0.2" until="127680" parking="true" />
        <stop busStop="35212" duration="10" />
        <stop busStop="8512" duration="10" />
        <stop busStop="17812" duration="10" />
        <stop busStop="8812" duration="10" />
        <stop busStop="22114" duration="10" />
        <stop busStop="7512" duration="10" />
        <stop busStop="34215" duration="10" />
        <stop lane="27220201#0_0" endPos="0.2" until="130800" parking="true" />
        <stop busStop="34213" duration="10" />
        <stop busStop="7511" duration="10" />
        <stop busStop="22111" duration="10" />
        <stop busStop="8813" duration="10" />
        <stop busStop="17811" duration="10" />
        <stop busStop="8511" duration="10" />
        <stop busStop="35211" duration="10" />
        <stop lane="591178581_0" endPos="0.2" until="133080" parking="true" />
        <stop busStop="35212" duration="10" />
        <stop busStop="8512" duration="10" />
        <stop busStop="17812" duration="10" />
        <stop busStop="8812" duration="10" />
        <stop busStop="22114" duration="10" />
        <stop busStop="7512" duration="10" />
        <stop busStop="34215" duration="10" />
        <stop lane="27220201#0_0" endPos="0.2" until="136200" parking="true" />
        <stop busStop="34213" duration="10" />
        <stop busStop="7511" duration="10" />
        <stop busStop="22111" duration="10" />
        <stop busStop="8813" duration="10" />
        <stop busStop="17811" duration="10" />
        <stop busStop="8511" duration="10" />
        <stop busStop="35211" duration="10" />
        <stop lane="591178581_0" endPos="0.2" until="138480" parking="true" />
        <stop busStop="35212" duration="10" />
        <stop busStop="8512" duration="10" />
        <stop busStop="17812" duration="10" />
        <stop busStop="8812" duration="10" />
        <stop busStop="22114" duration="10" />
        <stop busStop="7512" duration="10" />
        <stop busStop="34215" duration="10" />
        <stop lane="27220201#0_0" endPos="0.2" until="141600" parking="true" />
        <stop busStop="34213" duration="10" />
        <stop busStop="7511" duration="10" />
        <stop busStop="22111" duration="10" />
        <stop busStop="8813" duration="10" />
        <stop busStop="17811" duration="10" />
        <stop busStop="8511" duration="10" />
        <stop busStop="35211" duration="10" />
        <stop lane="591178581_0" endPos="0.2" until="143880" parking="true" />
        <stop busStop="35212" duration="10" />
        <stop busStop="8512" duration="10" />
        <stop busStop="17812" duration="10" />
        <stop busStop="8812" duration="10" />
        <stop busStop="22114" duration="10" />
        <stop busStop="7512" duration="10" />
        <stop busStop="34215" duration="10" />
        <stop lane="27220201#0_0" endPos="0.2" until="147000" parking="true" />
        <stop busStop="34213" duration="10" />
        <stop busStop="7511" duration="10" />
        <stop busStop="22111" duration="10" />
        <stop busStop="8813" duration="10" />
        <stop busStop="17811" duration="10" />
        <stop busStop="8511" duration="10" />
        <stop busStop="35211" duration="10" />
        <stop lane="591178581_0" endPos="0.2" until="149280" parking="true" />
        <stop busStop="35212" duration="10" />
        <stop busStop="8512" duration="10" />
        <stop busStop="17812" duration="10" />
        <stop busStop="8812" duration="10" />
        <stop busStop="22114" duration="10" />
        <stop busStop="7512" duration="10" />
        <stop busStop="34215" duration="10" />
        <stop lane="27220201#0_0" endPos="0.2" until="152400" parking="true" />
        <stop busStop="34213" duration="10" />
        <stop busStop="7511" duration="10" />
        <stop busStop="22111" duration="10" />
        <stop busStop="8813" duration="10" />
        <stop busStop="17811" duration="10" />
        <stop busStop="8511" duration="10" />
        <stop busStop="35211" duration="10" />
        <stop lane="591178581_0" endPos="0.2" until="154680" parking="true" />
        <stop busStop="35212" duration="10" />
        <stop busStop="8512" duration="10" />
        <stop busStop="17812" duration="10" />
        <stop busStop="8812" duration="10" />
        <stop busStop="22114" duration="10" />
        <stop busStop="7512" duration="10" />
        <stop busStop="34215" duration="10" />
        <stop lane="27220201#0_0" endPos="0.2" until="157800" parking="true" />
        <stop busStop="34213" duration="10" />
        <stop busStop="7511" duration="10" />
        <stop busStop="22111" duration="10" />
        <stop busStop="8813" duration="10" />
        <stop busStop="17811" duration="10" />
        <stop busStop="8511" duration="10" />
        <stop busStop="35211" duration="10" />
    </trip>
    <trip id="virtual_9" type="1" depart="102720">
        <stop busStop="17812" duration="10" />
        <stop busStop="8812" duration="10" />
        <stop busStop="22112" duration="10" />
        <stop busStop="13712" duration="10" />
        <stop busStop="16212" duration="10" />
        <stop busStop="12212" duration="10" />
        <stop busStop="29112" duration="10" />
        <stop busStop="31412" duration="10" />
        <stop busStop="13311" duration="10" />
        <stop busStop="18911" duration="10" />
        <stop busStop="9516" duration="10" />
        <stop busStop="8011" duration="10" />
        <stop busStop="28315" duration="10" />
        <stop busStop="5111" duration="10" />
        <stop busStop="22911" duration="10" />
        <stop busStop="35513" duration="10" />
        <stop busStop="4913" duration="10" />
        <stop busStop="31811" duration="10" />
        <stop busStop="16911" duration="10" />
        <stop busStop="33211" duration="10" />
        <stop busStop="17112" duration="10" />
        <stop busStop="14912" duration="10" />
        <stop busStop="22513" duration="10" />
        <stop busStop="23413" duration="10" />
        <stop busStop="27213" duration="10" />
        <stop busStop="18011" duration="10" />
        <stop busStop="17821" duration="10" />
        <stop lane="32353233#0_0" endPos="0.2" until="106320" parking="true" />
        <stop busStop="17812" duration="10" />
        <stop busStop="8812" duration="10" />
        <stop busStop="22112" duration="10" />
        <stop busStop="13712" duration="10" />
        <stop busStop="16212" duration="10" />
        <stop busStop="12212" duration="10" />
        <stop busStop="29112" duration="10" />
        <stop busStop="31412" duration="10" />
        <stop busStop="13311" duration="10" />
        <stop busStop="18911" duration="10" />
        <stop busStop="9516" duration="10" />
        <stop busStop="8011" duration="10" />
        <stop busStop="28315" duration="10" />
        <stop busStop="5111" duration="10" />
        <stop busStop="22911" duration="10" />
        <stop busStop="35513" duration="10" />
        <stop busStop="4913" duration="10" />
        <stop busStop="31811" duration="10" />
        <stop busStop="16911" duration="10" />
        <stop busStop="33211" duration="10" />
        <stop busStop="17112" duration="10" />
        <stop busStop="14912" duration="10" />
        <stop busStop="22513" duration="10" />
        <stop busStop="23413" duration="10" />
        <stop busStop="27213" duration="10" />
        <stop busStop="18011" duration="10" />
        <stop busStop="17821" duration="10" />
        <stop lane="32353233#0_0" endPos="0.2" until="109560" parking="true" />
        <stop busStop="17812" duration="10" />
        <stop busStop="8812" duration="10" />
        <stop busStop="22112" duration="10" />
        <stop busStop="13712" duration="10" />
        <stop busStop="16212" duration="10" />
        <stop busStop="12212" duration="10" />
        <stop busStop="29112" duration="10" />
        <stop busStop="31412" duration="10" />
        <stop busStop="13311" duration="10" />
        <stop busStop="18911" duration="10" />
        <stop busStop="9516" duration="10" />
        <stop busStop="8011" duration="10" />
        <stop busStop="28315" duration="10" />
        <stop busStop="5111" duration="10" />
        <stop busStop="22911" duration="10" />
        <stop busStop="35513" duration="10" />
        <stop busStop="4913" duration="10" />
        <stop busStop="31811" duration="10" />
        <stop busStop="16911" duration="10" />
        <stop busStop="33211" duration="10" />
        <stop busStop="17112" duration="10" />
        <stop busStop="14912" duration="10" />
        <stop busStop="22513" duration="10" />
        <stop busStop="23413" duration="10" />
        <stop busStop="27213" duration="10" />
        <stop busStop="18011" duration="10" />
        <stop busStop="17821" duration="10" />
        <stop lane="32353233#0_0" endPos="0.2" until="113160" parking="true" />
        <stop busStop="17812" duration="10" />
        <stop busStop="8812" duration="10" />
        <stop busStop="22112" duration="10" />
        <stop busStop="13712" duration="10" />
        <stop busStop="16212" duration="10" />
        <stop busStop="12212" duration="10" />
        <stop busStop="29112" duration="10" />
        <stop busStop="31412" duration="10" />
        <stop busStop="13311" duration="10" />
        <stop busStop="18911" duration="10" />
        <stop busStop="9516" duration="10" />
        <stop busStop="8011" duration="10" />
        <stop busStop="28315" duration="10" />
        <stop busStop="5111" duration="10" />
        <stop busStop="22911" duration="10" />
        <stop busStop="35513" duration="10" />
        <stop busStop="4913" duration="10" />
        <stop busStop="31811" duration="10" />
        <stop busStop="16911" duration="10" />
        <stop busStop="33211" duration="10" />
        <stop busStop="17112" duration="10" />
        <stop busStop="14912" duration="10" />
        <stop busStop="22513" duration="10" />
        <stop busStop="23413" duration="10" />
        <stop busStop="27213" duration="10" />
        <stop busStop="18011" duration="10" />
        <stop busStop="17821" duration="10" />
        <stop lane="32353233#0_0" endPos="0.2" until="116760" parking="true" />
        <stop busStop="17812" duration="10" />
        <stop busStop="8812" duration="10" />
        <stop busStop="22112" duration="10" />
        <stop busStop="13712" duration="10" />
        <stop busStop="16212" duration="10" />
        <stop busStop="12212" duration="10" />
        <stop busStop="29112" duration="10" />
        <stop busStop="31412" duration="10" />
        <stop busStop="13311" duration="10" />
        <stop busStop="18911" duration="10" />
        <stop busStop="9516" duration="10" />
        <stop busStop="8011" duration="10" />
        <stop busStop="28315" duration="10" />
        <stop busStop="5111" duration="10" />
        <stop busStop="22911" duration="10" />
        <stop busStop="35513" duration="10" />
        <stop busStop="4913" duration="10" />
        <stop busStop="31811" duration="10" />
        <stop busStop="16911" duration="10" />
        <stop busStop="33211" duration="10" />
        <stop busStop="17112" duration="10" />
        <stop busStop="14912" duration="10" />
        <stop busStop="22513" duration="10" />
        <stop busStop="23413" duration="10" />
        <stop busStop="27213" duration="10" />
        <stop busStop="18011" duration="10" />
        <stop busStop="17821" duration="10" />
        <stop lane="32353233#0_0" endPos="0.2" until="120360" parking="true" />
        <stop busStop="17812" duration="10" />
        <stop busStop="8812" duration="10" />
        <stop busStop="22112" duration="10" />
        <stop busStop="13712" duration="10" />
        <stop busStop="16212" duration="10" />
        <stop busStop="12212" duration="10" />
        <stop busStop="29112" duration="10" />
        <stop busStop="31412" duration="10" />
        <stop busStop="13311" duration="10" />
        <stop busStop="18911" duration="10" />
        <stop busStop="9516" duration="10" />
        <stop busStop="8011" duration="10" />
        <stop busStop="28315" duration="10" />
        <stop busStop="5111" duration="10" />
        <stop busStop="22911" duration="10" />
        <stop busStop="35513" duration="10" />
        <stop busStop="4913" duration="10" />
        <stop busStop="31811" duration="10" />
        <stop busStop="16911" duration="10" />
        <stop busStop="33211" duration="10" />
        <stop busStop="17112" duration="10" />
        <stop busStop="14912" duration="10" />
        <stop busStop="22513" duration="10" />
        <stop busStop="23413" duration="10" />
        <stop busStop="27213" duration="10" />
        <stop busStop="18011" duration="10" />
        <stop busStop="17821" duration="10" />
        <stop lane="32353233#0_0" endPos="0.2" until="123960" parking="true" />
        <stop busStop="17812" duration="10" />
        <stop busStop="8812" duration="10" />
        <stop busStop="22112" duration="10" />
        <stop busStop="13712" duration="10" />
        <stop busStop="16212" duration="10" />
        <stop busStop="12212" duration="10" />
        <stop busStop="29112" duration="10" />
        <stop busStop="31412" duration="10" />
        <stop busStop="13311" duration="10" />
        <stop busStop="18911" duration="10" />
        <stop busStop="9516" duration="10" />
        <stop busStop="8011" duration="10" />
        <stop busStop="28315" duration="10" />
        <stop busStop="5111" duration="10" />
        <stop busStop="22911" duration="10" />
        <stop busStop="35513" duration="10" />
        <stop busStop="4913" duration="10" />
        <stop busStop="31811" duration="10" />
        <stop busStop="16911" duration="10" />
        <stop busStop="33211" duration="10" />
        <stop busStop="17112" duration="10" />
        <stop busStop="14912" duration="10" />
        <stop busStop="22513" duration="10" />
        <stop busStop="23413" duration="10" />
        <stop busStop="27213" duration="10" />
        <stop busStop="18011" duration="10" />
        <stop busStop="17821" duration="10" />
        <stop lane="32353233#0_0" endPos="0.2" until="127560" parking="true" />
        <stop busStop="17812" duration="10" />
        <stop busStop="8812" duration="10" />
        <stop busStop="22112" duration="10" />
        <stop busStop="13712" duration="10" />
        <stop busStop="16212" duration="10" />
        <stop busStop="12212" duration="10" />
        <stop busStop="29112" duration="10" />
        <stop busStop="31412" duration="10" />
        <stop busStop="13311" duration="10" />
        <stop busStop="18911" duration="10" />
        <stop busStop="9516" duration="10" />
        <stop busStop="8011" duration="10" />
        <stop busStop="28315" duration="10" />
        <stop busStop="5111" duration="10" />
        <stop busStop="22911" duration="10" />
        <stop busStop="35513" duration="10" />
        <stop busStop="4913" duration="10" />
        <stop busStop="31811" duration="10" />
        <stop busStop="16911" duration="10" />
        <stop busStop="33211" duration="10" />
        <stop busStop="17112" duration="10" />
        <stop busStop="14912" duration="10" />
        <stop busStop="22513" duration="10" />
        <stop busStop="23413" duration="10" />
        <stop busStop="27213" duration="10" />
        <stop busStop="18011" duration="10" />
        <stop busStop="17821" duration="10" />
        <stop lane="32353233#0_0" endPos="0.2" until="131160" parking="true" />
        <stop busStop="17812" duration="10" />
        <stop busStop="8812" duration="10" />
        <stop busStop="22112" duration="10" />
        <stop busStop="13712" duration="10" />
        <stop busStop="16212" duration="10" />
        <stop busStop="12212" duration="10" />
        <stop busStop="29112" duration="10" />
        <stop busStop="31412" duration="10" />
        <stop busStop="13311" duration="10" />
        <stop busStop="18911" duration="10" />
        <stop busStop="9516" duration="10" />
        <stop busStop="8011" duration="10" />
        <stop busStop="28315" duration="10" />
        <stop busStop="5111" duration="10" />
        <stop busStop="22911" duration="10" />
        <stop busStop="35513" duration="10" />
        <stop busStop="4913" duration="10" />
        <stop busStop="31811" duration="10" />
        <stop busStop="16911" duration="10" />
        <stop busStop="33211" duration="10" />
        <stop busStop="17112" duration="10" />
        <stop busStop="14912" duration="10" />
        <stop busStop="22513" duration="10" />
        <stop busStop="23413" duration="10" />
        <stop busStop="27213" duration="10" />
        <stop busStop="18011" duration="10" />
        <stop busStop="17821" duration="10" />
        <stop lane="32353233#0_0" endPos="0.2" until="134760" parking="true" />
        <stop busStop="17812" duration="10" />
        <stop busStop="8812" duration="10" />
        <stop busStop="22112" duration="10" />
        <stop busStop="13712" duration="10" />
        <stop busStop="16212" duration="10" />
        <stop busStop="12212" duration="10" />
        <stop busStop="29112" duration="10" />
        <stop busStop="31412" duration="10" />
        <stop busStop="13311" duration="10" />
        <stop busStop="18911" duration="10" />
        <stop busStop="9516" duration="10" />
        <stop busStop="8011" duration="10" />
        <stop busStop="28315" duration="10" />
        <stop busStop="5111" duration="10" />
        <stop busStop="22911" duration="10" />
        <stop busStop="35513" duration="10" />
        <stop busStop="4913" duration="10" />
        <stop busStop="31811" duration="10" />
        <stop busStop="16911" duration="10" />
        <stop busStop="33211" duration="10" />
        <stop busStop="17112" duration="10" />
        <stop busStop="14912" duration="10" />
        <stop busStop="22513" duration="10" />
        <stop busStop="23413" duration="10" />
        <stop busStop="27213" duration="10" />
        <stop busStop="18011" duration="10" />
        <stop busStop="17821" duration="10" />
        <stop lane="32353233#0_0" endPos="0.2" until="138360" parking="true" />
        <stop busStop="17812" duration="10" />
        <stop busStop="8812" duration="10" />
        <stop busStop="22112" duration="10" />
        <stop busStop="13712" duration="10" />
        <stop busStop="16212" duration="10" />
        <stop busStop="12212" duration="10" />
        <stop busStop="29112" duration="10" />
        <stop busStop="31412" duration="10" />
        <stop busStop="13311" duration="10" />
        <stop busStop="18911" duration="10" />
        <stop busStop="9516" duration="10" />
        <stop busStop="8011" duration="10" />
        <stop busStop="28315" duration="10" />
        <stop busStop="5111" duration="10" />
        <stop busStop="22911" duration="10" />
        <stop busStop="35513" duration="10" />
        <stop busStop="4913" duration="10" />
        <stop busStop="31811" duration="10" />
        <stop busStop="16911" duration="10" />
        <stop busStop="33211" duration="10" />
        <stop busStop="17112" duration="10" />
        <stop busStop="14912" duration="10" />
        <stop busStop="22513" duration="10" />
        <stop busStop="23413" duration="10" />
        <stop busStop="27213" duration="10" />
        <stop busStop="18011" duration="10" />
        <stop busStop="17821" duration="10" />
        <stop lane="32353233#0_0" endPos="0.2" until="141960" parking="true" />
        <stop busStop="17812" duration="10" />
        <stop busStop="8812" duration="10" />
        <stop busStop="22112" duration="10" />
        <stop busStop="13712" duration="10" />
        <stop busStop="16212" duration="10" />
        <stop busStop="12212" duration="10" />
        <stop busStop="29112" duration="10" />
        <stop busStop="31412" duration="10" />
        <stop busStop="13311" duration="10" />
        <stop busStop="18911" duration="10" />
        <stop busStop="9516" duration="10" />
        <stop busStop="8011" duration="10" />
        <stop busStop="28315" duration="10" />
        <stop busStop="5111" duration="10" />
        <stop busStop="22911" duration="10" />
        <stop busStop="35513" duration="10" />
        <stop busStop="4913" duration="10" />
        <stop busStop="31811" duration="10" />
        <stop busStop="16911" duration="10" />
        <stop busStop="33211" duration="10" />
        <stop busStop="17112" duration="10" />
        <stop busStop="14912" duration="10" />
        <stop busStop="22513" duration="10" />
        <stop busStop="23413" duration="10" />
        <stop busStop="27213" duration="10" />
        <stop busStop="18011" duration="10" />
        <stop busStop="17821" duration="10" />
        <stop lane="32353233#0_0" endPos="0.2" until="145560" parking="true" />
        <stop busStop="17812" duration="10" />
        <stop busStop="8812" duration="10" />
        <stop busStop="22112" duration="10" />
        <stop busStop="13712" duration="10" />
        <stop busStop="16212" duration="10" />
        <stop busStop="12212" duration="10" />
        <stop busStop="29112" duration="10" />
        <stop busStop="31412" duration="10" />
        <stop busStop="13311" duration="10" />
        <stop busStop="18911" duration="10" />
        <stop busStop="9516" duration="10" />
        <stop busStop="8011" duration="10" />
        <stop busStop="28315" duration="10" />
        <stop busStop="5111" duration="10" />
        <stop busStop="22911" duration="10" />
        <stop busStop="35513" duration="10" />
        <stop busStop="4913" duration="10" />
        <stop busStop="31811" duration="10" />
        <stop busStop="16911" duration="10" />
        <stop busStop="33211" duration="10" />
        <stop busStop="17112" duration="10" />
        <stop busStop="14912" duration="10" />
        <stop busStop="22513" duration="10" />
        <stop busStop="23413" duration="10" />
        <stop busStop="27213" duration="10" />
        <stop busStop="18011" duration="10" />
        <stop busStop="17821" duration="10" />
        <stop lane="32353233#0_0" endPos="0.2" until="149160" parking="true" />
        <stop busStop="17812" duration="10" />
        <stop busStop="8812" duration="10" />
        <stop busStop="22112" duration="10" />
        <stop busStop="13712" duration="10" />
        <stop busStop="16212" duration="10" />
        <stop busStop="12212" duration="10" />
        <stop busStop="29112" duration="10" />
        <stop busStop="31412" duration="10" />
        <stop busStop="13311" duration="10" />
        <stop busStop="18911" duration="10" />
        <stop busStop="9516" duration="10" />
        <stop busStop="8011" duration="10" />
        <stop busStop="28315" duration="10" />
        <stop busStop="5111" duration="10" />
        <stop busStop="22911" duration="10" />
        <stop busStop="35513" duration="10" />
        <stop busStop="4913" duration="10" />
        <stop busStop="31811" duration="10" />
        <stop busStop="16911" duration="10" />
        <stop busStop="33211" duration="10" />
        <stop busStop="17112" duration="10" />
        <stop busStop="14912" duration="10" />
        <stop busStop="22513" duration="10" />
        <stop busStop="23413" duration="10" />
        <stop busStop="27213" duration="10" />
        <stop busStop="18011" duration="10" />
        <stop busStop="17821" duration="10" />
        <stop lane="32353233#0_0" endPos="0.2" until="152760" parking="true" />
        <stop busStop="17812" duration="10" />
        <stop busStop="8812" duration="10" />
        <stop busStop="22112" duration="10" />
        <stop busStop="13712" duration="10" />
        <stop busStop="16212" duration="10" />
        <stop busStop="12212" duration="10" />
        <stop busStop="29112" duration="10" />
        <stop busStop="31412" duration="10" />
        <stop busStop="13311" duration="10" />
        <stop busStop="18911" duration="10" />
        <stop busStop="9516" duration="10" />
        <stop busStop="8011" duration="10" />
        <stop busStop="28315" duration="10" />
        <stop busStop="5111" duration="10" />
        <stop busStop="22911" duration="10" />
        <stop busStop="35513" duration="10" />
        <stop busStop="4913" duration="10" />
        <stop busStop="31811" duration="10" />
        <stop busStop="16911" duration="10" />
        <stop busStop="33211" duration="10" />
        <stop busStop="17112" duration="10" />
        <stop busStop="14912" duration="10" />
        <stop busStop="22513" duration="10" />
        <stop busStop="23413" duration="10" />
        <stop busStop="27213" duration="10" />
        <stop busStop="18011" duration="10" />
        <stop busStop="17821" duration="10" />
        <stop lane="32353233#0_0" endPos="0.2" until="156480" parking="true" />
        <stop busStop="17812" duration="10" />
        <stop busStop="8812" duration="10" />
        <stop busStop="22112" duration="10" />
        <stop busStop="13712" duration="10" />
        <stop busStop="16212" duration="10" />
        <stop busStop="12212" duration="10" />
        <stop busStop="29112" duration="10" />
        <stop busStop="31412" duration="10" />
        <stop busStop="13311" duration="10" />
        <stop busStop="18911" duration="10" />
        <stop busStop="9516" duration="10" />
        <stop busStop="8011" duration="10" />
        <stop busStop="28315" duration="10" />
        <stop busStop="5111" duration="10" />
        <stop busStop="22911" duration="10" />
        <stop busStop="35513" duration="10" />
        <stop busStop="4913" duration="10" />
        <stop busStop="31811" duration="10" />