<?xml version="1.0" encoding="UTF-8"?>

<!-- generated on 2021-11-30 10:39:30 by Eclipse SUMO duarouter Version v1_10_0+0107-32a7811116
<configuration xmlns:xsi="http://www.w3.org/2001/XMLSchema-instance" xsi:noNamespaceSchemaLocation="http://sumo.dlr.de/xsd/duarouterConfiguration.xsd">

    <input>
        <net-file value="osm_short.net.xml"/>
        <route-files value="osm.truck.trips.xml"/>
    </input>

    <output>
        <output-file value="osm.truck.trips.xml.tmp"/>
        <write-trips value="true"/>
    </output>

    <time>
        <begin value="0"/>
        <end value="3600"/>
    </time>

    <report>
        <no-warnings value="true"/>
        <ignore-errors value="true"/>
        <no-step-log value="true"/>
    </report>

</configuration>
-->

<routes xmlns:xsi="http://www.w3.org/2001/XMLSchema-instance" xsi:noNamespaceSchemaLocation="http://sumo.dlr.de/xsd/routes_file.xsd">
    <vType id="truck_truck" vClass="truck"/>
    <trip id="truck0" type="truck_truck" depart="0.00" departLane="best" from="23839991#1" to="-146236035#0"/>
    <trip id="truck1" type="truck_truck" depart="1.00" departLane="best" from="27588705#5" to="25655638#0"/>
    <trip id="truck2" type="truck_truck" depart="2.00" departLane="best" from="49436917#5" to="-23648449#2"/>
    <trip id="truck3" type="truck_truck" depart="3.00" departLane="best" from="129558858#2" to="-146236075#0"/>
    <trip id="truck4" type="truck_truck" depart="4.00" departLane="best" from="-288304654" to="185283367"/>
    <trip id="truck5" type="truck_truck" depart="5.00" departLane="best" from="-146236008#1" to="-28865862"/>
    <trip id="truck6" type="truck_truck" depart="6.00" departLane="best" from="23859276#1" to="23691569#2"/>
    <trip id="truck7" type="truck_truck" depart="7.00" departLane="best" departSpeed="max" from="-28865840#1" to="23839995#4"/>
    <trip id="truck8" type="truck_truck" depart="8.00" departLane="best" from="31098344#7" to="-132526595#3"/>
    <trip id="truck9" type="truck_truck" depart="9.00" departLane="best" from="31095192#2" to="27588705#4"/>
    <trip id="truck11" type="truck_truck" depart="11.00" departLane="best" from="78257530#6" to="-887831603#0"/>
    <trip id="truck12" type="truck_truck" depart="12.00" departLane="best" from="386958207#2" to="23840202"/>
    <trip id="truck13" type="truck_truck" depart="13.00" departLane="best" from="31098344#0" to="29696131#2"/>
    <trip id="truck14" type="truck_truck" depart="14.00" departLane="best" from="155602773#0" to="887784233#3"/>
    <trip id="truck16" type="truck_truck" depart="16.00" departLane="best" from="37280973#3" to="23944511#5"/>
    <trip id="truck17" type="truck_truck" depart="17.00" departLane="best" from="42739994#0" to="23839407#4"/>
    <trip id="truck18" type="truck_truck" depart="18.00" departLane="best" from="254655130#0" to="-151270273#3"/>
    <trip id="truck19" type="truck_truck" depart="19.00" departLane="best" from="-291503929#2" to="-45492737#2"/>
    <trip id="truck21" type="truck_truck" depart="21.00" departLane="best" from="-23820768#13" to="-40306647"/>
    <trip id="truck22" type="truck_truck" depart="22.00" departLane="best" departSpeed="max" from="23839407#0" to="132933506#1"/>
    <trip id="truck23" type="truck_truck" depart="23.00" departLane="best" from="-549371195#1" to="-29696181"/>
    <trip id="truck24" type="truck_truck" depart="24.00" departLane="best" from="-30284547#0" to="667519338"/>
    <trip id="truck25" type="truck_truck" depart="25.00" departLane="best" from="23840202" to="23859274#1"/>
    <trip id="truck26" type="truck_truck" depart="26.00" departLane="best" from="-24528202#2" to="29696131#0"/>
    <trip id="truck27" type="truck_truck" depart="27.00" departLane="best" from="-23945152#0" to="134074458#1"/>
    <trip id="truck28" type="truck_truck" depart="28.00" departLane="best" from="9494854#1" to="245700282"/>
    <trip id="truck29" type="truck_truck" depart="29.00" departLane="best" departSpeed="max" from="171952945#3" to="26931557"/>
    <trip id="truck30" type="truck_truck" depart="30.00" departLane="best" from="38307400#4" to="305426553"/>
    <trip id="truck31" type="truck_truck" depart="31.00" departLane="best" from="-38307400#12" to="-38307400#7"/>
    <trip id="truck32" type="truck_truck" depart="32.00" departLane="best" from="-27588688#3" to="675800390"/>
    <trip id="truck33" type="truck_truck" depart="33.00" departLane="best" from="45841465#0" to="-549371195#8"/>
    <trip id="truck34" type="truck_truck" depart="34.00" departLane="best" from="23944511#2" to="146235915#0"/>
    <trip id="truck35" type="truck_truck" depart="35.00" departLane="best" from="52722215#2" to="154546803#3"/>
    <trip id="truck36" type="truck_truck" depart="36.00" departLane="best" from="-30284538#4" to="-31098344#5"/>
    <trip id="truck37" type="truck_truck" depart="37.00" departLane="best" from="206154376#1" to="500241681#0"/>
    <trip id="truck38" type="truck_truck" depart="38.00" departLane="best" from="-948720599" to="-30093479#17"/>
    <trip id="truck39" type="truck_truck" depart="39.00" departLane="best" from="9636773" to="185283380#0"/>
    <trip id="truck40" type="truck_truck" depart="40.00" departLane="best" from="-23824180#0" to="24527844"/>
    <trip id="truck41" type="truck_truck" depart="41.00" departLane="best" from="30284538#9" to="146236048#0"/>
    <trip id="truck42" type="truck_truck" depart="42.00" departLane="best" from="-155592914#9" to="134074458#11"/>
    <trip id="truck44" type="truck_truck" depart="44.00" departLane="best" from="8659473#4" to="45492447#1"/>
    <trip id="truck45" type="truck_truck" depart="45.00" departLane="best" departSpeed="max" from="-134074458#11" to="290516103"/>
    <trip id="truck46" type="truck_truck" depart="46.00" departLane="best" from="245703239#0" to="23648449#1"/>
    <trip id="truck47" type="truck_truck" depart="47.00" departLane="best" from="-30284538#9" to="245703236"/>
    <trip id="truck48" type="truck_truck" depart="48.00" departLane="best" departSpeed="max" from="-23824180#2" to="146236117#5"/>
    <trip id="truck49" type="truck_truck" depart="49.00" departLane="best" from="146235907#3" to="755451165"/>
    <trip id="truck50" type="truck_truck" depart="50.00" departLane="best" from="45776907" to="-37881409"/>
    <trip id="truck51" type="truck_truck" depart="51.00" departLane="best" from="147053206#4" to="-26931553"/>
    <trip id="truck52" type="truck_truck" depart="52.00" departLane="best" from="52455930" to="46435952#0"/>
    <trip id="truck54" type="truck_truck" depart="54.00" departLane="best" from="294383227" to="23648571#2"/>
    <trip id="truck55" type="truck_truck" depart="55.00" departLane="best" from="30093479#23" to="221124338#1"/>
    <trip id="truck56" type="truck_truck" depart="56.00" departLane="best" from="-10358616#1" to="-78257530#0"/>
    <trip id="truck57" type="truck_truck" depart="57.00" departLane="best" from="-146235910#0" to="613264583#4"/>
    <trip id="truck58" type="truck_truck" depart="58.00" departLane="best" from="-37249451#0" to="-155592973#9"/>
    <trip id="truck59" type="truck_truck" depart="59.00" departLane="best" from="461341761#0" to="684434683"/>
    <trip id="truck60" type="truck_truck" depart="60.00" departLane="best" departSpeed="max" from="-221124337#2" to="155602775#1"/>
    <trip id="truck61" type="truck_truck" depart="61.00" departLane="best" from="-155592972#0" to="30093479#9"/>
    <trip id="truck62" type="truck_truck" depart="62.00" departLane="best" from="146236047#0" to="23691612#3"/>
    <trip id="truck63" type="truck_truck" depart="63.00" departLane="best" from="-30284538#4" to="49024865#1"/>
    <trip id="truck64" type="truck_truck" depart="64.00" departLane="best" from="129558858#5" to="-29696226#0"/>
    <trip id="truck65" type="truck_truck" depart="65.00" departLane="best" departSpeed="max" from="155603716" to="29696131#2"/>
    <trip id="truck66" type="truck_truck" depart="66.00" departLane="best" from="-26931556#1" to="-549371195#0"/>
    <trip id="truck68" type="truck_truck" depart="68.00" departLane="best" from="133530793#4" to="186623965#6"/>
    <trip id="truck69" type="truck_truck" depart="69.00" departLane="best" from="-23839405#1" to="-30093479#31"/>
    <trip id="truck70" type="truck_truck" depart="70.00" departLane="best" from="-44006846#5" to="23839995#2"/>
    <trip id="truck71" type="truck_truck" depart="71.00" departLane="best" from="-29696131#0" to="-30093479#2"/>
    <trip id="truck72" type="truck_truck" depart="72.00" departLane="best" departSpeed="max" from="-155592972#1" to="24528085#1"/>
    <trip id="truck73" type="truck_truck" depart="73.00" departLane="best" from="-291504511" to="51820487#1"/>
    <trip id="truck74" type="truck_truck" depart="74.00" departLane="best" departSpeed="max" from="40404168" to="-166249013#2"/>
    <trip id="truck75" type="truck_truck" depart="75.00" departLane="best" departSpeed="max" from="-29696191#1" to="254655130#3"/>
    <trip id="truck76" type="truck_truck" depart="76.00" departLane="best" from="-27588705#3" to="-23840196#1"/>
    <trip id="truck77" type="truck_truck" depart="77.00" departLane="best" from="61732799" to="23839283#6"/>
    <trip id="truck78" type="truck_truck" depart="78.00" departLane="best" from="146236024#1" to="309637396#10"/>
    <trip id="truck79" type="truck_truck" depart="79.00" departLane="best" from="31098344#1" to="-27588688#9"/>
    <trip id="truck80" type="truck_truck" depart="80.00" departLane="best" from="-23691571#2" to="146236076#0"/>
    <trip id="truck81" type="truck_truck" depart="81.00" departLane="best" from="129558858#6" to="155574995#1"/>
    <trip id="truck82" type="truck_truck" depart="82.00" departLane="best" departSpeed="max" from="26931580#0" to="25613229#3"/>
    <trip id="truck83" type="truck_truck" depart="83.00" departLane="best" from="948720598" to="-23820768#11"/>
    <trip id="truck84" type="truck_truck" depart="84.00" departLane="best" from="42739994#0" to="-31302705#0"/>
    <trip id="truck85" type="truck_truck" depart="85.00" departLane="best" from="-25351586" to="147053206#4"/>
    <trip id="truck86" type="truck_truck" depart="86.00" departLane="best" from="129558858#2" to="-40306647"/>
    <trip id="truck87" type="truck_truck" depart="87.00" departLane="best" from="-30093478#2" to="55443968#2"/>
    <trip id="truck88" type="truck_truck" depart="88.00" departLane="best" from="134074458#4" to="45492447#2"/>
    <trip id="truck89" type="truck_truck" depart="89.00" departLane="best" from="157331959#1" to="-155592914#6"/>
    <trip id="truck90" type="truck_truck" depart="90.00" departLane="best" from="9862121#2" to="38307400#2"/>
    <trip id="truck91" type="truck_truck" depart="91.00" departLane="best" from="863172828#3" to="613264577"/>
    <trip id="truck92" type="truck_truck" depart="92.00" departLane="best" from="146236076#1" to="-30093468#1"/>
    <trip id="truck93" type="truck_truck" depart="93.00" departLane="best" from="-9494854#3" to="-155592973#9"/>
    <trip id="truck95" type="truck_truck" depart="95.00" departLane="best" from="-30284538#4" to="309637396#0"/>
    <trip id="truck96" type="truck_truck" depart="96.00" departLane="best" from="78257530#6" to="9636773"/>
    <trip id="truck97" type="truck_truck" depart="97.00" departLane="best" from="-23859276#3" to="-49367557"/>
    <trip id="truck98" type="truck_truck" depart="98.00" departLane="best" from="863172828#3" to="23839407#5"/>
    <trip id="truck99" type="truck_truck" depart="99.00" departLane="best" departSpeed="max" from="155603717#0" to="30093472"/>
    <trip id="truck100" type="truck_truck" depart="100.00" departLane="best" departSpeed="max" from="-154735855" to="23839604#0"/>
    <trip id="truck102" type="truck_truck" depart="102.00" departLane="best" from="-23944511#1" to="8204171#1"/>
    <trip id="truck104" type="truck_truck" depart="104.00" departLane="best" from="23648446#1" to="25613668#3"/>
    <trip id="truck105" type="truck_truck" depart="105.00" departLane="best" departSpeed="max" from="-29696161#1" to="-23839407#0"/>
    <trip id="truck106" type="truck_truck" depart="106.00" departLane="best" from="49436917#0" to="-31098344#4"/>
    <trip id="truck107" type="truck_truck" depart="107.00" departLane="best" from="23648446#0" to="23944511#7"/>
    <trip id="truck108" type="truck_truck" depart="108.00" departLane="best" from="120302892#2" to="23839457#1"/>
    <trip id="truck109" type="truck_truck" depart="109.00" departLane="best" departSpeed="max" from="155592917#3" to="667519332#1"/>
    <trip id="truck110" type="truck_truck" depart="110.00" departLane="best" departSpeed="max" from="-26931559#1" to="28874900"/>
    <trip id="truck112" type="truck_truck" depart="112.00" departLane="best" from="24528202#0" to="-51301303#1"/>
    <trip id="truck113" type="truck_truck" depart="113.00" departLane="best" departSpeed="max" from="-38307400#13" to="30093479#14"/>
    <trip id="truck114" type="truck_truck" depart="114.00" departLane="best" from="-155602770#1" to="154546803#3"/>
    <trip id="truck115" type="truck_truck" depart="115.00" departLane="best" from="9862121#0" to="97102780#2"/>
    <trip id="truck116" type="truck_truck" depart="116.00" departLane="best" from="-155603717#1" to="-30093468#0"/>
    <trip id="truck117" type="truck_truck" depart="117.00" departLane="best" from="-30284538#4" to="6186290#1"/>
    <trip id="truck118" type="truck_truck" depart="118.00" departLane="best" from="49024865#2" to="49165470#5"/>
    <trip id="truck120" type="truck_truck" depart="120.00" departLane="best" from="377863340#1" to="28675445#1"/>
    <trip id="truck121" type="truck_truck" depart="121.00" departLane="best" from="23820768#11" to="9494854#1"/>
    <trip id="truck122" type="truck_truck" depart="122.00" departLane="best" from="23944511#1" to="-132526595#3"/>
    <trip id="truck123" type="truck_truck" depart="123.00" departLane="best" from="345615194#2" to="-49710589#1"/>
    <trip id="truck124" type="truck_truck" depart="124.00" departLane="best" from="-23839995#3" to="-23839283#8"/>
    <trip id="truck125" type="truck_truck" depart="125.00" departLane="best" departSpeed="max" from="-30285093#1" to="23840246#1"/>
    <trip id="truck127" type="truck_truck" depart="127.00" departLane="best" departSpeed="max" from="23839407#0" to="-37881409"/>
    <trip id="truck128" type="truck_truck" depart="128.00" departLane="best" from="146236117#4" to="51820487#1"/>
    <trip id="truck129" type="truck_truck" depart="129.00" departLane="best" from="386958206#2" to="-23691529#0"/>
    <trip id="truck130" type="truck_truck" depart="130.00" departLane="best" from="129558858#6" to="-40294410#5"/>
    <trip id="truck131" type="truck_truck" depart="131.00" departLane="best" from="-10358787#3" to="30284548"/>
    <trip id="truck132" type="truck_truck" depart="132.00" departLane="best" from="23839407#3" to="-37881408"/>
    <trip id="truck133" type="truck_truck" depart="133.00" departLane="best" from="28675445#0" to="23820768#11"/>
    <trip id="truck134" type="truck_truck" depart="134.00" departLane="best" from="132933506#3" to="-133197916#0"/>
    <trip id="truck135" type="truck_truck" depart="135.00" departLane="best" from="-186623963#0" to="49436743"/>
    <trip id="truck136" type="truck_truck" depart="136.00" departLane="best" from="51236926#1" to="23691571#2"/>
    <trip id="truck137" type="truck_truck" depart="137.00" departLane="best" from="-37249451#3" to="50589394#0"/>
    <trip id="truck138" type="truck_truck" depart="138.00" departLane="best" from="30582561#1" to="45492075"/>
    <trip id="truck139" type="truck_truck" depart="139.00" departLane="best" from="49710589#1" to="-29696191#0"/>
    <trip id="truck140" type="truck_truck" depart="140.00" departLane="best" from="-30093478#1" to="-23820818#2"/>
    <trip id="truck141" type="truck_truck" depart="141.00" departLane="best" from="30093479#27" to="49436917#0"/>
    <trip id="truck142" type="truck_truck" depart="142.00" departLane="best" departSpeed="max" from="-9518754#0" to="23944895"/>
    <trip id="truck143" type="truck_truck" depart="143.00" departLane="best" from="-23859276#3" to="615933831"/>
    <trip id="truck144" type="truck_truck" depart="144.00" departLane="best" from="430519784#0" to="887784244"/>
    <trip id="truck145" type="truck_truck" depart="145.00" departLane="best" departSpeed="max" from="31302705#0" to="49292083#3"/>
    <trip id="truck146" type="truck_truck" depart="146.00" departLane="best" from="-146235961#3" to="29696191#1"/>
    <trip id="truck147" type="truck_truck" depart="147.00" departLane="best" from="-40294410#2" to="61732798#0"/>
    <trip id="truck148" type="truck_truck" depart="148.00" departLane="best" from="309637396#4" to="45493216"/>
    <trip id="truck149" type="truck_truck" depart="149.00" departLane="best" departSpeed="max" from="31302705#0" to="-38307400#4"/>
    <trip id="truck150" type="truck_truck" depart="150.00" departLane="best" from="30284538#0" to="-23824072#1"/>
    <trip id="truck151" type="truck_truck" depart="151.00" departLane="best" from="45493216" to="430519784#0"/>
    <trip id="truck152" type="truck_truck" depart="152.00" departLane="best" from="-28865861#0" to="349784051"/>
    <trip id="truck154" type="truck_truck" depart="154.00" departLane="best" from="30582561#0" to="-30280669#1"/>
    <trip id="truck155" type="truck_truck" depart="155.00" departLane="best" departSpeed="max" from="-146235950" to="-27588705#6"/>
    <trip id="truck157" type="truck_truck" depart="157.00" departLane="best" from="847333250#1" to="-40325189"/>
    <trip id="truck158" type="truck_truck" depart="158.00" departLane="best" from="23839995#4" to="146235931#2"/>
    <trip id="truck159" type="truck_truck" depart="159.00" departLane="best" from="888866959#1" to="23648446#0"/>
    <trip id="truck160" type="truck_truck" depart="160.00" departLane="best" departSpeed="max" from="626221099" to="-23839283#8"/>
    <trip id="truck161" type="truck_truck" depart="161.00" departLane="best" from="8659473#2" to="-26931551"/>
    <trip id="truck162" type="truck_truck" depart="162.00" departLane="best" from="82097114#3" to="-38307400#12"/>
    <trip id="truck163" type="truck_truck" depart="163.00" departLane="best" from="-23824072#2" to="146236117#4"/>
    <trip id="truck164" type="truck_truck" depart="164.00" departLane="best" departSpeed="max" from="26931580#0" to="-549371195#5"/>
    <trip id="truck165" type="truck_truck" depart="165.00" departLane="best" from="23691571#3" to="186623963#3"/>
    <trip id="truck166" type="truck_truck" depart="166.00" departLane="best" from="-78257530#2" to="23839407#2"/>
    <trip id="truck167" type="truck_truck" depart="167.00" departLane="best" from="-30093479#21" to="28865840#0"/>
    <trip id="truck168" type="truck_truck" depart="168.00" departLane="best" from="-10358660#1" to="60880949#1"/>
    <trip id="truck169" type="truck_truck" depart="169.00" departLane="best" from="155602775#1" to="28895629#2"/>
    <trip id="truck170" type="truck_truck" depart="170.00" departLane="best" from="-52455319" to="-155603720#1"/>
    <trip id="truck172" type="truck_truck" depart="172.00" departLane="best" departSpeed="max" from="26931553" to="-51301304#1"/>
    <trip id="truck173" type="truck_truck" depart="173.00" departLane="best" from="-37249451#5" to="146235961#7"/>
    <trip id="truck174" type="truck_truck" depart="174.00" departLane="best" from="-9517709#1" to="-49054751"/>
    <trip id="truck175" type="truck_truck" depart="175.00" departLane="best" departSpeed="max" from="-23839457#1" to="146236043#1"/>
    <trip id="truck176" type="truck_truck" depart="176.00" departLane="best" from="50589261#3" to="23944511#0"/>
    <trip id="truck177" type="truck_truck" depart="177.00" departLane="best" departSpeed="max" from="-32607974" to="23691574#5"/>
    <trip id="truck178" type="truck_truck" depart="178.00" departLane="best" from="132933506#9" to="23839432"/>
    <trip id="truck179" type="truck_truck" depart="179.00" departLane="best" from="134074458#10" to="-30093468#1"/>
    <trip id="truck180" type="truck_truck" depart="180.00" departLane="best" from="146236035#0" to="51301304#1"/>
    <trip id="truck181" type="truck_truck" depart="181.00" departLane="best" from="30582561#1" to="-25449392#8"/>
    <trip id="truck182" type="truck_truck" depart="182.00" departLane="best" departSpeed="max" from="-221124337#2" to="186623965#10"/>
    <trip id="truck183" type="truck_truck" depart="183.00" departLane="best" departSpeed="max" from="23839368" to="-887831603#0"/>
    <trip id="truck184" type="truck_truck" depart="184.00" departLane="best" from="349784051" to="30093479#12"/>
    <trip id="truck185" type="truck_truck" depart="185.00" departLane="best" from="24528202#3" to="-30093479#31"/>
    <trip id="truck186" type="truck_truck" depart="186.00" departLane="best" from="-25598319#2" to="-146236020#1"/>
    <trip id="truck187" type="truck_truck" depart="187.00" departLane="best" from="-30093467" to="155592921#1"/>
    <trip id="truck188" type="truck_truck" depart="188.00" departLane="best" from="39178785#1" to="-175595640"/>
    <trip id="truck189" type="truck_truck" depart="189.00" departLane="best" from="10358787#0" to="24528074"/>
    <trip id="truck190" type="truck_truck" depart="190.00" departLane="best" from="-254655128#0" to="27588705#0"/>
    <trip id="truck191" type="truck_truck" depart="191.00" departLane="best" from="146505401" to="-31098339#0"/>
    <trip id="truck192" type="truck_truck" depart="192.00" departLane="best" from="23944511#3" to="-120302892#0"/>
    <trip id="truck193" type="truck_truck" depart="193.00" departLane="best" departSpeed="max" from="28870699" to="30284547#1"/>
    <trip id="truck194" type="truck_truck" depart="194.00" departLane="best" departSpeed="max" from="-23823310#4" to="146236058#1"/>
    <trip id="truck196" type="truck_truck" depart="196.00" departLane="best" from="155585661#1" to="-155592914#4"/>
    <trip id="truck198" type="truck_truck" depart="198.00" departLane="best" from="146235920" to="31678331"/>
    <trip id="truck199" type="truck_truck" depart="199.00" departLane="best" from="24528049" to="9494854#2"/>
    <trip id="truck200" type="truck_truck" depart="200.00" departLane="best" from="23648449#1" to="697622723"/>
    <trip id="truck201" type="truck_truck" depart="201.00" departLane="best" from="49436917#3" to="23859276#4"/>
    <trip id="truck202" type="truck_truck" depart="202.00" departLane="best" departSpeed="max" from="26931553" to="185283362"/>
    <trip id="truck203" type="truck_truck" depart="203.00" departLane="best" departSpeed="max" from="37746276#3" to="23691574#5"/>
    <trip id="truck204" type="truck_truck" depart="204.00" departLane="best" from="49607568#2" to="30055133"/>
    <trip id="truck205" type="truck_truck" depart="205.00" departLane="best" from="146236043#1" to="-37280973#3"/>
    <trip id="truck206" type="truck_truck" depart="206.00" departLane="best" departSpeed="max" from="-30093472" to="24540734#1"/>
    <trip id="truck207" type="truck_truck" depart="207.00" departLane="best" from="29696154#1" to="194017408#2"/>
    <trip id="truck208" type="truck_truck" depart="208.00" departLane="best" from="23824484#4" to="-400019532#7"/>
    <trip id="truck209" type="truck_truck" depart="209.00" departLane="best" from="-186623965#16" to="-44006846#2"/>
    <trip id="truck210" type="truck_truck" depart="210.00" departLane="best" from="-30285093#0" to="-626221099"/>
    <trip id="truck211" type="truck_truck" depart="211.00" departLane="best" departSpeed="max" from="155603716" to="-23944511#12"/>
    <trip id="truck212" type="truck_truck" depart="212.00" departLane="best" from="-29696131#3" to="27588688#2"/>
    <trip id="truck213" type="truck_truck" depart="213.00" departLane="best" from="254655130#6" to="-155603716"/>
    <trip id="truck214" type="truck_truck" depart="214.00" departLane="best" from="-9862121#0" to="23691529#2"/>
    <trip id="truck215" type="truck_truck" depart="215.00" departLane="best" from="10358787#4" to="-29696131#2"/>
    <trip id="truck216" type="truck_truck" depart="216.00" departLane="best" from="127806985#1" to="51793889"/>
    <trip id="truck217" type="truck_truck" depart="217.00" departLane="best" from="206154375#1" to="27588688#8"/>
    <trip id="truck218" type="truck_truck" depart="218.00" departLane="best" departSpeed="max" from="40325189" to="30284538#2"/>
    <trip id="truck220" type="truck_truck" depart="220.00" departLane="best" from="-49607568#1" to="30093479#18"/>
    <trip id="truck221" type="truck_truck" depart="221.00" departLane="best" from="40294410#2" to="755451165"/>
    <trip id="truck222" type="truck_truck" depart="222.00" departLane="best" from="120302892#2" to="30093472"/>
    <trip id="truck223" type="truck_truck" depart="223.00" departLane="best" from="155603720#1" to="23840196#2"/>
    <trip id="truck224" type="truck_truck" depart="224.00" departLane="best" departSpeed="max" from="-28865840#1" to="-30093479#17"/>
    <trip id="truck225" type="truck_truck" depart="225.00" departLane="best" from="133306993#8" to="-146236068#0"/>
    <trip id="truck226" type="truck_truck" depart="226.00" departLane="best" from="-42473609#1" to="260714009#1"/>
    <trip id="truck227" type="truck_truck" depart="227.00" departLane="best" from="-9518615#4" to="-25168493#0"/>
    <trip id="truck228" type="truck_truck" depart="228.00" departLane="best" departSpeed="max" from="146235998#1" to="-23840170#0"/>
    <trip id="truck229" type="truck_truck" depart="229.00" departLane="best" from="23823387#4" to="-146236048#0"/>
    <trip id="truck230" type="truck_truck" depart="230.00" departLane="best" from="-887784241#1" to="23824180#0"/>
    <trip id="truck231" type="truck_truck" depart="231.00" departLane="best" departSpeed="max" from="-23839995#5" to="155328222#0"/>
    <trip id="truck232" type="truck_truck" depart="232.00" departLane="best" from="-147054952#1" to="134074458#0"/>
    <trip id="truck233" type="truck_truck" depart="233.00" departLane="best" from="-27588688#7" to="-82097114#1"/>
    <trip id="truck235" type="truck_truck" depart="235.00" departLane="best" from="-30093479#14" to="-225249129#3"/>
    <trip id="truck236" type="truck_truck" depart="236.00" departLane="best" from="-146235910#0" to="23648571#2"/>
    <trip id="truck237" type="truck_truck" depart="237.00" departLane="best" from="23859276#3" to="30896930"/>
    <trip id="truck238" type="truck_truck" depart="238.00" departLane="best" from="23859690#1" to="30093479#21"/>
    <trip id="truck239" type="truck_truck" depart="239.00" departLane="best" from="684214887" to="-28895629#1"/>
    <trip id="truck240" type="truck_truck" depart="240.00" departLane="best" from="-146235924#0" to="-24528340#1"/>
    <trip id="truck241" type="truck_truck" depart="241.00" departLane="best" departSpeed="max" from="-23839432" to="254655130#4"/>
    <trip id="truck242" type="truck_truck" depart="242.00" departLane="best" from="185283370#0" to="-30093479#14"/>
    <trip id="truck243" type="truck_truck" depart="243.00" departLane="best" from="25449392#7" to="30284538#6"/>
    <trip id="truck244" type="truck_truck" depart="244.00" departLane="best" departSpeed="max" from="-24527844" to="23859274#0"/>
    <trip id="truck245" type="truck_truck" depart="245.00" departLane="best" from="28865860#0" to="-23839283#6"/>
    <trip id="truck246" type="truck_truck" depart="246.00" departLane="best" from="349784055" to="82105514"/>
    <trip id="truck247" type="truck_truck" depart="247.00" departLane="best" from="-23824072#1" to="-146236035#1"/>
    <trip id="truck248" type="truck_truck" depart="248.00" departLane="best" departSpeed="max" from="-37280973#6" to="25655638#3"/>
    <trip id="truck249" type="truck_truck" depart="249.00" departLane="best" from="806491554" to="146235924#0"/>
    <trip id="truck250" type="truck_truck" depart="250.00" departLane="best" from="260714009#0" to="-186623965#2"/>
    <trip id="truck251" type="truck_truck" depart="251.00" departLane="best" departSpeed="max" from="25168046#0" to="24527844"/>
    <trip id="truck252" type="truck_truck" depart="252.00" departLane="best" from="-23820768#15" to="30284618"/>
    <trip id="truck253" type="truck_truck" depart="253.00" departLane="best" from="39178785#2" to="23840189"/>
    <trip id="truck254" type="truck_truck" depart="254.00" departLane="best" from="-23839405#1" to="94587454"/>
    <trip id="truck255" type="truck_truck" depart="255.00" departLane="best" from="30093479#32" to="-9518615#1"/>
    <trip id="truck256" type="truck_truck" depart="256.00" departLane="best" from="132933506#5" to="133197917#11"/>
    <trip id="truck257" type="truck_truck" depart="257.00" departLane="best" from="147054956#1" to="-948720599"/>
    <trip id="truck258" type="truck_truck" depart="258.00" departLane="best" from="39178785#1" to="36138030#1"/>
    <trip id="truck259" type="truck_truck" depart="259.00" departLane="best" departSpeed="max" from="-23823310#4" to="8204171#1"/>
    <trip id="truck260" type="truck_truck" depart="260.00" departLane="best" departSpeed="max" from="23839407#0" to="37280973#6"/>
    <trip id="truck261" type="truck_truck" depart="261.00" departLane="best" from="25597251#1" to="146236119"/>
    <trip id="truck262" type="truck_truck" depart="262.00" departLane="best" from="27588688#8" to="827831747#0"/>
    <trip id="truck263" type="truck_truck" depart="263.00" departLane="best" departSpeed="max" from="-30284548" to="32607974"/>
    <trip id="truck264" type="truck_truck" depart="264.00" departLane="best" from="133306993#7" to="29696142#1"/>
    <trip id="truck265" type="truck_truck" depart="265.00" departLane="best" departSpeed="max" from="-30284547#1" to="40294410#4"/>