<?xml version="1.0" encoding="UTF-8"?>

<!-- generated on 2021-11-30 10:35:43 by Eclipse SUMO duarouter Version v1_10_0+0107-32a7811116
<configuration xmlns:xsi="http://www.w3.org/2001/XMLSchema-instance" xsi:noNamespaceSchemaLocation="http://sumo.dlr.de/xsd/duarouterConfiguration.xsd">

    <input>
        <net-file value="osm_short.net.xml"/>
        <route-files value="osm.passenger.trips.xml"/>
    </input>

    <output>
        <output-file value="osm.passenger.trips.xml.tmp"/>
        <write-trips value="true"/>
    </output>

    <time>
        <begin value="0"/>
        <end value="3600"/>
    </time>

    <report>
        <no-warnings value="true"/>
        <ignore-errors value="true"/>
        <no-step-log value="true"/>
    </report>

</configuration>
-->

<routes xmlns:xsi="http://www.w3.org/2001/XMLSchema-instance" xsi:noNamespaceSchemaLocation="http://sumo.dlr.de/xsd/routes_file.xsd">
    <vType id="veh_passenger" vClass="passenger"/>
    <trip id="veh0" type="veh_passenger" depart="0.00" departLane="best" from="245703238#0" to="-146236060"/>
    <trip id="veh1" type="veh_passenger" depart="1.00" departLane="best" from="-386958206#2" to="-37881408"/>
    <trip id="veh2" type="veh_passenger" depart="2.00" departLane="best" from="29696161#0" to="28675361#4"/>
    <trip id="veh3" type="veh_passenger" depart="3.00" departLane="best" from="53106905#2" to="-23820768#11"/>
    <trip id="veh4" type="veh_passenger" depart="4.00" departLane="best" from="146236047#2" to="-146505404#0"/>
    <trip id="veh5" type="veh_passenger" depart="5.00" departLane="best" from="-30093479#2" to="221124337#1"/>
    <trip id="veh6" type="veh_passenger" depart="6.00" departLane="best" departSpeed="max" from="-146236020#3" to="-30284538#5"/>
    <trip id="veh7" type="veh_passenger" depart="7.00" departLane="best" from="245703241-AddedOnRampEdge" to="23839367#3"/>
    <trip id="veh8" type="veh_passenger" depart="8.00" departLane="best" from="-30093479#27" to="24527844"/>
    <trip id="veh9" type="veh_passenger" depart="9.00" departLane="best" from="38307400#5" to="-132526595#3"/>
    <trip id="veh10" type="veh_passenger" depart="10.00" departLane="best" departSpeed="max" from="38109585#1" to="290505939"/>
    <trip id="veh11" type="veh_passenger" depart="11.00" departLane="best" from="-895078749" to="-26931556#0"/>
    <trip id="veh12" type="veh_passenger" depart="12.00" departLane="best" from="82105514" to="134074458#11"/>
    <trip id="veh13" type="veh_passenger" depart="13.00" departLane="best" from="-23820818#4" to="-23824180#1"/>
    <trip id="veh15" type="veh_passenger" depart="15.00" departLane="best" from="38307400#1" to="30093479#23"/>
    <trip id="veh16" type="veh_passenger" depart="16.00" departLane="best" from="186623965#15" to="887784238#0"/>
    <trip id="veh17" type="veh_passenger" depart="17.00" departLane="best" from="133306993#4" to="23839457#0"/>
    <trip id="veh18" type="veh_passenger" depart="18.00" departLane="best" from="430519781#1" to="245703240"/>
    <trip id="veh19" type="veh_passenger" depart="19.00" departLane="best" from="49436917#10" to="23859276#3"/>
    <trip id="veh20" type="veh_passenger" depart="20.00" departLane="best" from="278719786#1" to="-155592917#3"/>
    <trip id="veh21" type="veh_passenger" depart="21.00" departLane="best" from="-30284538#5" to="-888640740"/>
    <trip id="veh22" type="veh_passenger" depart="22.00" departLane="best" from="-225249130#1" to="-391398132#1"/>
    <trip id="veh23" type="veh_passenger" depart="23.00" departLane="best" from="-23824484#4" to="-78257530#3"/>
    <trip id="veh24" type="veh_passenger" depart="24.00" departLane="best" from="245700294" to="146235961#0"/>
    <trip id="veh25" type="veh_passenger" depart="25.00" departLane="best" from="132933506#9" to="-31095193"/>
    <trip id="veh26" type="veh_passenger" depart="26.00" departLane="best" departSpeed="max" from="-37280973#6" to="684214891"/>
    <trip id="veh27" type="veh_passenger" depart="27.00" departLane="best" from="245703241" to="245703237#0"/>
    <trip id="veh28" type="veh_passenger" depart="28.00" departLane="best" from="-25598319#0" to="30093479#2"/>
    <trip id="veh29" type="veh_passenger" depart="29.00" departLane="best" from="-25168493#0" to="146236048#1"/>
    <trip id="veh30" type="veh_passenger" depart="30.00" departLane="best" from="9494854#0" to="254655129#0"/>
    <trip id="veh31" type="veh_passenger" depart="31.00" departLane="best" from="225249130#4" to="288606743#0"/>
    <trip id="veh32" type="veh_passenger" depart="32.00" departLane="best" from="461341760#1" to="32607834"/>
    <trip id="veh33" type="veh_passenger" depart="33.00" departLane="best" from="-30093467" to="697622725#1"/>
    <trip id="veh34" type="veh_passenger" depart="34.00" departLane="best" from="49785870#3" to="132933506#3"/>
    <trip id="veh35" type="veh_passenger" depart="35.00" departLane="best" departSpeed="max" from="25168046#0" to="146505404#1"/>
    <trip id="veh36" type="veh_passenger" depart="36.00" departLane="best" from="61732799" to="159226261"/>
    <trip id="veh37" type="veh_passenger" depart="37.00" departLane="best" from="-37249451#6" to="-44006846#6"/>
    <trip id="veh38" type="veh_passenger" depart="38.00" departLane="best" from="23648449#2" to="-53120603"/>
    <trip id="veh39" type="veh_passenger" depart="39.00" departLane="best" from="23824072#3" to="55443963#1"/>
    <trip id="veh40" type="veh_passenger" depart="40.00" departLane="best" from="146235907#2" to="-37249451#2"/>
    <trip id="veh41" type="veh_passenger" depart="41.00" departLane="best" from="9636773" to="225249130#0"/>
    <trip id="veh42" type="veh_passenger" depart="42.00" departLane="best" from="-23820768#15" to="-155592921#1"/>
    <trip id="veh43" type="veh_passenger" depart="43.00" departLane="best" departSpeed="max" from="-23839407#5" to="25138862"/>
    <trip id="veh44" type="veh_passenger" depart="44.00" departLane="best" from="369730467#1" to="155585658#1"/>
    <trip id="veh45" type="veh_passenger" depart="45.00" departLane="best" from="-155602770#3" to="146236060"/>
    <trip id="veh46" type="veh_passenger" depart="46.00" departLane="best" from="9519690" to="23820818#2"/>
    <trip id="veh47" type="veh_passenger" depart="47.00" departLane="best" from="-134074458#2" to="30055133"/>
    <trip id="veh48" type="veh_passenger" depart="48.00" departLane="best" from="26384476" to="23824072#3"/>
    <trip id="veh49" type="veh_passenger" depart="49.00" departLane="best" departSpeed="max" from="-37280973#6" to="254655130#1"/>
    <trip id="veh50" type="veh_passenger" depart="50.00" departLane="best" departSpeed="max" from="-23839432" to="155602770#3"/>
    <trip id="veh51" type="veh_passenger" depart="51.00" departLane="best" departSpeed="max" from="155328201#1" to="806491553"/>
    <trip id="veh52" type="veh_passenger" depart="52.00" departLane="best" from="49785870#1" to="-53120603"/>
    <trip id="veh53" type="veh_passenger" depart="53.00" departLane="best" departSpeed="max" from="159482235" to="-29696131#3"/>
    <trip id="veh54" type="veh_passenger" depart="54.00" departLane="best" from="61732798#1" to="49710589#1"/>
    <trip id="veh55" type="veh_passenger" depart="55.00" departLane="best" from="-49364082#0" to="254655128#1"/>
    <trip id="veh56" type="veh_passenger" depart="56.00" departLane="best" from="23944425" to="-25598319#3"/>
    <trip id="veh57" type="veh_passenger" depart="57.00" departLane="best" from="30582563#0" to="23824180#2"/>
    <trip id="veh58" type="veh_passenger" depart="58.00" departLane="best" from="-10358616#1" to="133197917#7"/>
    <trip id="veh59" type="veh_passenger" depart="59.00" departLane="best" departSpeed="max" from="-146235950" to="667519353"/>
    <trip id="veh60" type="veh_passenger" depart="60.00" departLane="best" from="500241681#0" to="45492447#1"/>
    <trip id="veh61" type="veh_passenger" depart="61.00" departLane="best" from="-51793886" to="-155603717#2"/>
    <trip id="veh62" type="veh_passenger" depart="62.00" departLane="best" from="500241681#0" to="755451165"/>
    <trip id="veh63" type="veh_passenger" depart="63.00" departLane="best" from="-23691529#2" to="186623964#13"/>
    <trip id="veh64" type="veh_passenger" depart="64.00" departLane="best" from="-186623965#13" to="309637399#0"/>
    <trip id="veh65" type="veh_passenger" depart="65.00" departLane="best" from="30892097" to="-24528014#0"/>
    <trip id="veh66" type="veh_passenger" depart="66.00" departLane="best" from="155602769#0" to="23839407#5"/>
    <trip id="veh67" type="veh_passenger" depart="67.00" departLane="best" from="-37280973#0" to="49785870#1"/>
    <trip id="veh68" type="veh_passenger" depart="68.00" departLane="best" from="146236050" to="-31098344#5"/>
    <trip id="veh69" type="veh_passenger" depart="69.00" departLane="best" from="194017408#0" to="30093479#23"/>
    <trip id="veh70" type="veh_passenger" depart="70.00" departLane="best" from="-29696161#0" to="129558858#5"/>
    <trip id="veh71" type="veh_passenger" depart="71.00" departLane="best" from="9518615#4" to="25640487#3"/>
    <trip id="veh72" type="veh_passenger" depart="72.00" departLane="best" from="146505403#2" to="23648571#4"/>
    <trip id="veh73" type="veh_passenger" depart="73.00" departLane="best" departSpeed="max" from="-23839998#5" to="-37881409"/>
    <trip id="veh74" type="veh_passenger" depart="74.00" departLane="best" from="-887831603#1" to="24396896#1"/>
    <trip id="veh75" type="veh_passenger" depart="75.00" departLane="best" departSpeed="max" from="-30284547#1" to="-37249451#4"/>
    <trip id="veh76" type="veh_passenger" depart="76.00" departLane="best" from="-186623965#4" to="25168070#2"/>
    <trip id="veh77" type="veh_passenger" depart="77.00" departLane="best" from="-30284538#9" to="613264582"/>
    <trip id="veh78" type="veh_passenger" depart="78.00" departLane="best" from="49436914" to="-217625796"/>
    <trip id="veh79" type="veh_passenger" depart="79.00" departLane="best" departSpeed="max" from="-30905496" to="27588688#3"/>
    <trip id="veh80" type="veh_passenger" depart="80.00" departLane="best" from="-30093478#0" to="-24535482#0"/>
    <trip id="veh81" type="veh_passenger" depart="81.00" departLane="best" from="667519357" to="23840246#0"/>
    <trip id="veh82" type="veh_passenger" depart="82.00" departLane="best" departSpeed="max" from="155592973#9" to="344915525"/>
    <trip id="veh83" type="veh_passenger" depart="83.00" departLane="best" from="38307400#10" to="-30093479#24"/>
    <trip id="veh84" type="veh_passenger" depart="84.00" departLane="best" from="-23824072#3" to="155592952#0"/>
    <trip id="veh86" type="veh_passenger" depart="86.00" departLane="best" from="291503929#5" to="27588741#2"/>
    <trip id="veh87" type="veh_passenger" depart="87.00" departLane="best" departSpeed="max" from="9493806" to="-23824484#5"/>
    <trip id="veh88" type="veh_passenger" depart="88.00" departLane="best" from="146235924#1" to="134074458#6"/>
    <trip id="veh89" type="veh_passenger" depart="89.00" departLane="best" from="49436917#10" to="-45776907"/>
    <trip id="veh90" type="veh_passenger" depart="90.00" departLane="best" departSpeed="max" from="-28865840#1" to="157331958#0"/>
    <trip id="veh91" type="veh_passenger" depart="91.00" departLane="best" from="146236047#2" to="-78257530#5"/>
    <trip id="veh92" type="veh_passenger" depart="92.00" departLane="best" departSpeed="max" from="-31098344#8" to="667519339#1"/>
    <trip id="veh93" type="veh_passenger" depart="93.00" departLane="best" from="147053206#6" to="49436917#6"/>
    <trip id="veh94" type="veh_passenger" depart="94.00" departLane="best" from="206442705#1" to="-155592973#9"/>
    <trip id="veh95" type="veh_passenger" depart="95.00" departLane="best" from="9862121#1" to="45493217#1"/>
    <trip id="veh96" type="veh_passenger" depart="96.00" departLane="best" from="887784232" to="667519347"/>
    <trip id="veh97" type="veh_passenger" depart="97.00" departLane="best" from="49165470#2" to="-28675361#3"/>
    <trip id="veh98" type="veh_passenger" depart="98.00" departLane="best" departSpeed="max" from="155603720#0" to="-31302705#0"/>
    <trip id="veh99" type="veh_passenger" depart="99.00" departLane="best" from="146235912" to="-155603720#0"/>
    <trip id="veh100" type="veh_passenger" depart="100.00" departLane="best" from="133306993#7" to="9494011#0"/>
    <trip id="veh101" type="veh_passenger" depart="101.00" departLane="best" from="-37280973#0" to="344915525"/>
    <trip id="veh103" type="veh_passenger" depart="103.00" departLane="best" from="82105514" to="9636773"/>
    <trip id="veh104" type="veh_passenger" depart="104.00" departLane="best" from="225249130#0" to="29696226#1"/>
    <trip id="veh106" type="veh_passenger" depart="106.00" departLane="best" from="887784232" to="23943552"/>
    <trip id="veh107" type="veh_passenger" depart="107.00" departLane="best" from="-155592921#1" to="23944511#9"/>
    <trip id="veh108" type="veh_passenger" depart="108.00" departLane="best" departSpeed="max" from="171952945#3" to="49367556"/>
    <trip id="veh109" type="veh_passenger" depart="109.00" departLane="best" from="-25168046#1" to="847333250#0"/>
    <trip id="veh110" type="veh_passenger" depart="110.00" departLane="best" from="-225249130#1" to="-30093478#2"/>
    <trip id="veh111" type="veh_passenger" depart="111.00" departLane="best" from="23839407#1" to="278719786#1"/>
    <trip id="veh112" type="veh_passenger" depart="112.00" departLane="best" from="-305426552" to="-23944511#12"/>
    <trip id="veh113" type="veh_passenger" depart="113.00" departLane="best" from="52722215#0" to="-44006846#5"/>
    <trip id="veh114" type="veh_passenger" depart="114.00" departLane="best" departSpeed="max" from="23839407#0" to="245703241"/>
    <trip id="veh115" type="veh_passenger" depart="115.00" departLane="best" from="146236030" to="23944511#7"/>
    <trip id="veh116" type="veh_passenger" depart="116.00" departLane="best" from="185283377#2" to="675800390"/>
    <trip id="veh117" type="veh_passenger" depart="117.00" departLane="best" from="25598319#0" to="10358616#0"/>
    <trip id="veh118" type="veh_passenger" depart="118.00" departLane="best" from="-549371195#4" to="30582563#1"/>
    <trip id="veh120" type="veh_passenger" depart="120.00" departLane="best" from="97102780#2" to="9636773"/>
    <trip id="veh122" type="veh_passenger" depart="122.00" departLane="best" from="-37280973#0" to="667519358"/>
    <trip id="veh123" type="veh_passenger" depart="123.00" departLane="best" from="132933506#8" to="-26931559#0"/>
    <trip id="veh124" type="veh_passenger" depart="124.00" departLane="best" from="44006846#5" to="291503929#3"/>
    <trip id="veh125" type="veh_passenger" depart="125.00" departLane="best" from="23944511#3" to="9494529"/>
    <trip id="veh127" type="veh_passenger" depart="127.00" departLane="best" departSpeed="max" from="25449971#0" to="684434684"/>
    <trip id="veh128" type="veh_passenger" depart="128.00" departLane="best" departSpeed="max" from="-23859275" to="-23840196#2"/>
    <trip id="veh129" type="veh_passenger" depart="129.00" departLane="best" from="-23839405#1" to="23839457#1"/>
    <trip id="veh130" type="veh_passenger" depart="130.00" departLane="best" from="-38307400#4" to="245700282"/>
    <trip id="veh131" type="veh_passenger" depart="131.00" departLane="best" from="28865860#1" to="-30892097"/>
    <trip id="veh132" type="veh_passenger" depart="132.00" departLane="best" from="245700282" to="-53120603"/>
    <trip id="veh133" type="veh_passenger" depart="133.00" departLane="best" from="157277069" to="613264582"/>
    <trip id="veh135" type="veh_passenger" depart="135.00" departLane="best" from="-116082038#0" to="31098344#8"/>
    <trip id="veh136" type="veh_passenger" depart="136.00" departLane="best" from="245703236" to="-53106905#0"/>
    <trip id="veh137" type="veh_passenger" depart="137.00" departLane="best" from="30093469#0" to="23839432"/>
    <trip id="veh138" type="veh_passenger" depart="138.00" departLane="best" from="146236063#0" to="-133530796"/>
    <trip id="veh139" type="veh_passenger" depart="139.00" departLane="best" from="-217625795#0" to="51793887"/>
    <trip id="veh140" type="veh_passenger" depart="140.00" departLane="best" from="577776195#1" to="23839367#4"/>
    <trip id="veh141" type="veh_passenger" depart="141.00" departLane="best" from="45492075" to="23944511#4"/>
    <trip id="veh142" type="veh_passenger" depart="142.00" departLane="best" from="-24528202#1" to="-24528014#0"/>
    <trip id="veh143" type="veh_passenger" depart="143.00" departLane="best" from="-51793889" to="55443966"/>
    <trip id="veh144" type="veh_passenger" depart="144.00" departLane="best" from="37744228#2" to="49436917#5"/>
    <trip id="veh145" type="veh_passenger" depart="145.00" departLane="best" from="549575904#2" to="-31098344#0"/>
    <trip id="veh146" type="veh_passenger" depart="146.00" departLane="best" from="-31098344#7" to="-23839368"/>
    <trip id="veh147" type="veh_passenger" depart="147.00" departLane="best" from="32310824#0" to="51820487#1"/>
    <trip id="veh150" type="veh_passenger" depart="150.00" departLane="best" from="49436917#5" to="887784244"/>
    <trip id="veh151" type="veh_passenger" depart="151.00" departLane="best" from="38307400#9" to="51308164#1"/>
    <trip id="veh152" type="veh_passenger" depart="152.00" departLane="best" from="-146236020#2" to="30280669#0"/>
    <trip id="veh153" type="veh_passenger" depart="153.00" departLane="best" from="-82105514" to="667519354#1"/>
    <trip id="veh154" type="veh_passenger" depart="154.00" departLane="best" departSpeed="max" from="37881408" to="49532098#0"/>
    <trip id="veh155" type="veh_passenger" depart="155.00" departLane="best" from="38307400#9" to="-549371195#2"/>
    <trip id="veh156" type="veh_passenger" depart="156.00" departLane="best" from="349784056" to="-23839985"/>
    <trip id="veh157" type="veh_passenger" depart="157.00" departLane="best" from="49607568#0" to="49436917#2"/>
    <trip id="veh159" type="veh_passenger" depart="159.00" departLane="best" from="155585658#1" to="114687116#1"/>
    <trip id="veh160" type="veh_passenger" depart="160.00" departLane="best" from="37280973#3" to="-38307400#12"/>
    <trip id="veh161" type="veh_passenger" depart="161.00" departLane="best" from="-146236015#0" to="-30093479#31"/>
    <trip id="veh162" type="veh_passenger" depart="162.00" departLane="best" from="-78257530#3" to="49532099#0"/>
    <trip id="veh163" type="veh_passenger" depart="163.00" departLane="best" from="88219057#2" to="-82097114#1"/>
    <trip id="veh164" type="veh_passenger" depart="164.00" departLane="best" from="245703238#3" to="147053202#2"/>
    <trip id="veh165" type="veh_passenger" depart="165.00" departLane="best" from="895078748#2" to="23824072#1"/>
    <trip id="veh166" type="veh_passenger" depart="166.00" departLane="best" from="684434683" to="-23840196#2"/>
    <trip id="veh167" type="veh_passenger" depart="167.00" departLane="best" from="887784233#3" to="-29696131#2"/>
    <trip id="veh168" type="veh_passenger" depart="168.00" departLane="best" from="8659473#0" to="-549367825#10"/>
    <trip id="veh169" type="veh_passenger" depart="169.00" departLane="best" departSpeed="max" from="-23839407#5" to="155602770#1"/>
    <trip id="veh170" type="veh_passenger" depart="170.00" departLane="best" from="291503929#3" to="132933506#1"/>
    <trip id="veh171" type="veh_passenger" depart="171.00" departLane="best" from="23859276#1" to="230219563"/>
    <trip id="veh172" type="veh_passenger" depart="172.00" departLane="best" from="133530797#0" to="23859275"/>
    <trip id="veh173" type="veh_passenger" depart="173.00" departLane="best" departSpeed="max" from="-32607973" to="29696131#1"/>
    <trip id="veh174" type="veh_passenger" depart="174.00" departLane="best" from="-10358787#0" to="667519346"/>
    <trip id="veh175" type="veh_passenger" depart="175.00" departLane="best" from="186623965#6" to="29696226#1"/>
    <trip id="veh176" type="veh_passenger" depart="176.00" departLane="best" from="30093478#0" to="27588705#0"/>
    <trip id="veh177" type="veh_passenger" depart="177.00" departLane="best" from="132526595#4" to="-194017408#1"/>
    <trip id="veh178" type="veh_passenger" depart="178.00" departLane="best" departSpeed="max" from="25449971#0" to="133530793#3"/>
    <trip id="veh179" type="veh_passenger" depart="179.00" departLane="best" from="-53106905#0" to="49165470#1"/>
    <trip id="veh180" type="veh_passenger" depart="180.00" departLane="best" departSpeed="max" from="28870699" to="10358616#1"/>
    <trip id="veh181" type="veh_passenger" depart="181.00" departLane="best" from="-52119836#0" to="154546803#1"/>
    <trip id="veh182" type="veh_passenger" depart="182.00" departLane="best" from="146235924#0" to="-9518428"/>
    <trip id="veh183" type="veh_passenger" depart="183.00" departLane="best" from="-23840186#2" to="155585658#0"/>
    <trip id="veh184" type="veh_passenger" depart="184.00" departLane="best" from="684434683" to="28675445#0"/>
    <trip id="veh185" type="veh_passenger" depart="185.00" departLane="best" from="55443968#0" to="245703239#3"/>
    <trip id="veh186" type="veh_passenger" depart="186.00" departLane="best" from="-49710589#0" to="23839407#3"/>
    <trip id="veh187" type="veh_passenger" depart="187.00" departLane="best" from="-10358616#1" to="-887831539#3"/>
    <trip id="veh188" type="veh_passenger" depart="188.00" departLane="best" from="146236076#1" to="23944425"/>
    <trip id="veh189" type="veh_passenger" depart="189.00" departLane="best" from="25138862" to="174512526#1"/>
    <trip id="veh190" type="veh_passenger" depart="190.00" departLane="best" from="147053206#4" to="-31302705#0"/>
    <trip id="veh191" type="veh_passenger" depart="191.00" departLane="best" departSpeed="max" from="155592973#9" to="55443968#1"/>
    <trip id="veh192" type="veh_passenger" depart="192.00" departLane="best" from="37744228#2" to="-28865840#0"/>
    <trip id="veh193" type="veh_passenger" depart="193.00" departLane="best" from="245700275#1" to="134074458#0"/>
    <trip id="veh194" type="veh_passenger" depart="194.00" departLane="best" from="40294410#5" to="30582563#1"/>
    <trip id="veh195" type="veh_passenger" depart="195.00" departLane="best" from="25598319#3" to="-37881409"/>
    <trip id="veh196" type="veh_passenger" depart="196.00" departLane="best" from="-29696131#1" to="-146236058#1"/>
    <trip id="veh197" type="veh_passenger" depart="197.00" departLane="best" departSpeed="max" from="-31098339#1" to="185283373#2"/>
    <trip id="veh198" type="veh_passenger" depart="198.00" departLane="best" from="49165470#6" to="-221124338#3"/>
    <trip id="veh199" type="veh_passenger" depart="199.00" departLane="best" departSpeed="max" from="146235998#1" to="25168070#0"/>
    <trip id="veh200" type="veh_passenger" depart="200.00" departLane="best" from="157331959#1" to="-44006846#2"/>
    <trip id="veh201" type="veh_passenger" depart="201.00" departLane="best" departSpeed="max" from="25168046#0" to="-132526595#3"/>
    <trip id="veh202" type="veh_passenger" depart="202.00" departLane="best" from="30093479#4" to="31098344#8"/>
    <trip id="veh203" type="veh_passenger" depart="203.00" departLane="best" departSpeed="max" from="-23839367#4" to="155592914#0"/>
    <trip id="veh204" type="veh_passenger" depart="204.00" departLane="best" departSpeed="max" from="-26931559#1" to="82100902#2"/>
    <trip id="veh205" type="veh_passenger" depart="205.00" departLane="best" from="185283373#0" to="-155592973#9"/>
    <trip id="veh206" type="veh_passenger" depart="206.00" departLane="best" from="155574991" to="37746277#0"/>
    <trip id="veh207" type="veh_passenger" depart="207.00" departLane="best" from="254655129#1" to="9494854#0"/>
    <trip id="veh208" type="veh_passenger" depart="208.00" departLane="best" from="23839407#3" to="80179188"/>
    <trip id="veh209" type="veh_passenger" depart="209.00" departLane="best" from="53106905#0" to="245703238#6"/>
    <trip id="veh210" type="veh_passenger" depart="210.00" departLane="best" departSpeed="max" from="28870699" to="217625795#0"/>
    <trip id="veh211" type="veh_passenger" depart="211.00" departLane="best" from="430519784#0" to="23839407#3"/>
    <trip id="veh212" type="veh_passenger" depart="212.00" departLane="best" from="549371195#6" to="30284548"/>
    <trip id="veh213" type="veh_passenger" depart="213.00" departLane="best" departSpeed="max" from="155600116#3" to="-52119836#1"/>
    <trip id="veh214" type="veh_passenger" depart="214.00" departLane="best" departSpeed="max" from="-31098340" to="25449971#1"/>
    <trip id="veh215" type="veh_passenger" depart="215.00" departLane="best" from="30892097" to="23691569#2"/>
    <trip id="veh216" type="veh_passenger" depart="216.00" departLane="best" from="24528202#3" to="-626221099"/>
    <trip id="veh217" type="veh_passenger" depart="217.00" departLane="best" departSpeed="max" from="-221124337#2" to="-887831538"/>
    <trip id="veh218" type="veh_passenger" depart="218.00" departLane="best" from="-38307400#2" to="132933508#2"/>
    <trip id="veh219" type="veh_passenger" depart="219.00" departLane="best" from="194017408#2" to="-25168046#0"/>
    <trip id="veh220" type="veh_passenger" depart="220.00" departLane="best" departSpeed="max" from="-30284548" to="28895620#0"/>
    <trip id="veh221" type="veh_passenger" depart="221.00" departLane="best" from="28675445#0" to="-186623963#3"/>
    <trip id="veh222" type="veh_passenger" depart="222.00" departLane="best" from="146235953#1" to="23839283#4"/>
    <trip id="veh223" type="veh_passenger" depart="223.00" departLane="best" from="146236002#1" to="-309637396#2"/>
    <trip id="veh224" type="veh_passenger" depart="224.00" departLane="best" from="146236035#1" to="613264581"/>
    <trip id="veh225" type="veh_passenger" depart="225.00" departLane="best" from="23824072#1" to="28895620#1"/>
    <trip id="veh226" type="veh_passenger" depart="226.00" departLane="best" departSpeed="max" from="49435369" to="31098339#1"/>
    <trip id="veh227" type="veh_passenger" depart="227.00" departLane="best" from="133530793#10" to="-132526595#3"/>
    <trip id="veh228" type="veh_passenger" depart="228.00" departLane="best" from="10358731#0" to="30834492#0"/>
    <trip id="veh229" type="veh_passenger" depart="229.00" departLane="best" departSpeed="max" from="49435369" to="806491553"/>
    <trip id="veh230" type="veh_passenger" depart="230.00" departLane="best" from="146236024#1" to="305426553"/>
    <trip id="veh232" type="veh_passenger" depart="232.00" departLane="best" from="-30093479#27" to="-37249451#2"/>
    <trip id="veh233" type="veh_passenger" depart="233.00" departLane="best" from="-887831538" to="288192128#0"/>
    <trip id="veh235" type="veh_passenger" depart="235.00" departLane="best" from="155592917#4" to="-24528014#0"/>
    <trip id="veh236" type="veh_passenger" depart="236.00" departLane="best" from="24528020#4" to="-146505396"/>
    <trip id="veh238" type="veh_passenger" depart="238.00" departLane="best" departSpeed="max" from="-146236033" to="25596960#0"/>
    <trip id="veh240" type="veh_passenger" depart="240.00" departLane="best" departSpeed="max" from="-154546803#4" to="146236048#0"/>
    <trip id="veh241" type="veh_passenger" depart="241.00" departLane="best" from="-30093468#1" to="133306993#7"/>
    <trip id="veh242" type="veh_passenger" depart="242.00" departLane="best" from="30582561#0" to="146236048#0"/>
    <trip id="veh243" type="veh_passenger" depart="243.00" departLane="best" from="30166585#1" to="45492447#1"/>
    <trip id="veh244" type="veh_passenger" depart="244.00" departLane="best" departSpeed="max" from="-31678331" to="-23691529#0"/>
    <trip id="veh245" type="veh_passenger" depart="245.00" departLane="best" departSpeed="max" from="-146235950" to="23824180#2"/>
    <trip id="veh246" type="veh_passenger" depart="246.00" departLane="best" from="98785518#1" to="146235907#4"/>
    <trip id="veh249" type="veh_passenger" depart="249.00" departLane="best" departSpeed="max" from="8204188#0" to="-30284538#8"/>
    <trip id="veh250" type="veh_passenger" depart="250.00" departLane="best" departSpeed="max" from="-146235950" to="-25598319#2"/>
    <trip id="veh251" type="veh_passenger" depart="251.00" departLane="best" departSpeed="max" from="-23840178#4" to="27588688#6"/>
    <trip id="veh252" type="veh_passenger" depart="252.00" departLane="best" from="23648571#5" to="-35954404#4"/>
    <trip id="veh253" type="veh_passenger" depart="253.00" departLane="best" from="27588688#9" to="31098340"/>
    <trip id="veh254" type="veh_passenger" depart="254.00" departLane="best" from="-254655128#0" to="245703235"/>
    <trip id="veh255" type="veh_passenger" depart="255.00" departLane="best" from="30093479#26" to="-23840196#0"/>
    <trip id="veh256" type="veh_passenger" depart="256.00" departLane="best" departSpeed="max" from="40306647" to="8659473#2"/>
    <trip id="veh257" type="veh_passenger" depart="257.00" departLane="best" from="-23839407#4" to="-146236068#1"/>
    <trip id="veh258" type="veh_passenger" depart="258.00" departLane="best" from="-52455930" to="28675445#0"/>
    <trip id="veh260" type="veh_passenger" depart="260.00" departLane="best" from="288629109#0" to="-225249130#3"/>
    <trip id="veh261" type="veh_passenger" depart="261.00" departLane="best" departSpeed="max" from="26931559#0" to="25138862"/>
    <trip id="veh262" type="veh_passenger" depart="262.00" departLane="best" from="-23839283#1" to="31678331"/>
    <trip id="veh263" type="veh_passenger" depart="263.00" departLane="best" from="49165470#8" to="24540734#1"/>
    <trip id="veh264" type="veh_passenger" depart="264.00" departLane="best" departSpeed="max" from="-23839998#5" to="94587454"/>