<?xml version="1.0" encoding="UTF-8"?>

<!-- generated on 04/08/21 15:35:01 by Eclipse SUMO duarouter Version v1_8_0+1937-5528240401
<configuration xmlns:xsi="http://www.w3.org/2001/XMLSchema-instance" xsi:noNamespaceSchemaLocation="http://sumo.dlr.de/xsd/duarouterConfiguration.xsd">

    <input>
        <net-file value="Netzmodell2.net.xml"/>
        <additional-files value="osm_stops.add.xml"/>
        <route-files value="bustrips.xml"/>
    </input>

    <output>
        <output-file value="busrouten.xml"/>
        <alternatives-output value="busrouten.alt.xml"/>
    </output>

</configuration>
-->

<routes xmlns:xsi="http://www.w3.org/2001/XMLSchema-instance" xsi:noNamespaceSchemaLocation="http://sumo.dlr.de/xsd/routes_file.xsd">
    <vType id="bus" vClass="bus"/>
    
	<route id="Bus738#1" edges="26943536#1 111677669#0 111677669#1 111677669#2 111677669#3 111677669#4 111677669#5 876057376 876343449#0 876343449#1 876343449#2 876343449#3 876343449#4 803012921#0 803012921#1 803012921#2 803012921#4 876343451#0 876343451#1 876343451#2 876343451#3 814303496#0 814303496#1 876343448#0 876343448#1 876343448#2 876343448#3 876343448#5 814061747#0 814061747#1 814061747#2 814061747#3 814061747#5 814061747#6 814061747#7 814061747#8 814061747#9 814061747#10 gneE0 828195561#0 828195561#1 782710712 -28298231 -311298682#0 -311298658 -835443464 -311298662#1 -311298662#0 -782714966#1 -782714966#0 120682113#0 120682113#1 627579930#0 627579930#1 40009020#0 40009020#2 40009020#4 40009020#5 40009020#6 40009020#7 -782714971#4 -782714971#3 -782714971#2 -782714971#1 -782714971#0 -783907721#2 -783907721#1 -783907721#0 -880137009#1 -880137009#0 747448014 782714970 -311298665 -535519490#1 -535519490#0 -4895001#0 -4935286#3 -4935286#2 -4935286#1 -4935286#0 4935287#0 4935287#1 4935287#2 783647325#0 783647325#1 26216780#0 26216780#1 26216780#2">
        <stop busStop="1234644010" duration="30.00" until="60.00"/>
        <stop busStop="1234643898" duration="30.00" until="120.00"/>
        <stop busStop="295276561" duration="30.00" until="180.00"/>
        <stop busStop="3822420838" duration="30.00" until="360.00"/>
        <stop busStop="8230253350" duration="30.00" until="480.00"/>
        <stop busStop="busStop_-782714966#1_0_35" duration="30.00" until="540.00"/>
        <stop busStop="busStop_627579930#0_0_36" duration="30.00" until="600.00"/>
        <stop busStop="busStop_40009020#5_0_37" duration="30.00" until="660.00"/>
        <stop busStop="-1383533505" duration="30.00" until="720.00"/>
        <stop busStop="-7328339906" duration="30.00" until="780.00"/>
    </route>
	<flow id="738#1" route="Bus738#1" type="bus" line="bus738#1" begin="00:12:00" end="24:00:00" period="3600"/>
    
    <route id="Bus738#2" edges="4935299#0 4935299#1 26216779#0 26216779#1 26216781#0 26216781#1 26216781#2 26216781#3 4935286#0 4935286#1 4935286#2 4935286#3 131942152 535519490#0 535519490#1 311298665 58621262#0 58621262#1 880137009#0 880137009#1 783907721#0 783907721#1 783907721#2 782714971#0 782714971#1 782714971#2 782714971#3 782714971#4 -40009020#7 -40009020#6 -40009020#5 -40009020#4 -40009020#3 -40009020#0 -627579930#1 -627579930#0 -502325083 -120682113#0 782714966#0 782714966#1 311298662#0 311298662#1 835443464 311298658 311298682#0 311298682#1 27149242 747448015 -828195561#1 -828195561#0 -gneE0 -814061747#10 -814061747#9 -814061747#8 -814061747#7 -814061747#6 -814061747#5 -814061747#3 -814061747#2 -814061747#1 -814061747#0 -876343448#5 -876343448#3 -876343448#2 -876343448#1 -876343448#0 -814303496#1 -814303496#0 -876343451#3 -876343451#2 -876343451#1 -876343451#0 -803012921#4 -803012921#3 -803012921#1 -803012921#0 -876343449#4 -876343449#3 -876343449#2 -876343449#1 -876343449#0 -4950193 -111677669#5 -111677669#4 -111677669#3 -111677669#2 -111677669#1 -111677669#0 -26943536#1">
        <stop busStop="726485184" duration="30.00" until="60.00"/>
        <stop busStop="1383533507" duration="30.00" until="120.00"/>
        <stop busStop="-295271266" duration="30.00" until="180.00"/>
        <stop busStop="-7728875784" duration="30.00" until="240.00"/>
        <stop busStop="1234643808" duration="30.00" until="300.00"/>
        <stop busStop="-3822420839" duration="30.00" until="420.00"/>
        <stop busStop="-1242393953" duration="30.00" until="480.00"/>
        <stop busStop="-1234643950" duration="30.00" until="540.00"/>
        <stop busStop="-1234643811" duration="30.00" until="600.00"/>
    </route>
    <flow id="738#2" route="Bus738#2" type="bus" line="bus738#2" begin="00:10:00" end="24:00:00" period="3600"/>
        <route id="Bus737#1" edges="-828195561#0 -gneE0 -814061747#10 -814061747#9 -814061747#8 -814061747#7 -814061747#6 -814061747#5 -814061747#3 -814061747#2 -814061747#1 -814061747#0 -876343448#5 -876343448#3 -876343448#2 -876343448#1 -876343448#0 -814303496#1 -814303496#0 -876343451#3 -876343451#2 -876343451#1 -876343451#0 -803012921#4 -803012921#3 -803012921#1 -803012921#0 -876343449#4 -876343449#3 -876343449#2 -876343449#1 -876343449#0 -4950193 -111677669#5 -111677669#4 -111677669#3 -111677669#2 -111677669#1 -111677669#0 -111677668#4 -111677668#3 -111677668#0 -835445203 -24337240#7 -24337240#6 -24337240#4 -24337240#3 -24337240#2 -24337240#1 -24337240#0 -120682114#3 -120682114#2 -120682114#1 -111681903#3 -111681903#2 -111681903#1 -111681903#0 -782714971#4 -782714971#3 -782714971#2 -782714971#1 -782714971#0 -783907721#2 -783907721#1 -783907721#0 -880137009#1 -880137009#0 747448014 782714970 -311298665 -535519490#1 -535519490#0 -4895001#0 -4935286#3 -4935286#2 -4935286#1 -4935286#0 4935287#0 4935287#1 4935287#2 783647325#0 783647325#1 26216780#0 26216780#1">
        <stop busStop="-3822420839" duration="30.00" until="60.00"/>
        <stop busStop="-1242393953" duration="30.00" until="120.00"/>
        <stop busStop="-1234643950" duration="30.00" until="180.00"/>
        <stop busStop="-7328303685" duration="30.00" until="240.00"/>
        <stop busStop="-1242393807" duration="30.00" until="300.00"/>
        <stop busStop="-1242393753" duration="30.00" until="360.00"/>
        <stop busStop="-1383533505" duration="30.00" until="420.00"/>
        <stop busStop="-7328339906" duration="30.00" until="480.00"/>
    </route>
	<flow id="737#1" route="Bus737#1" type="bus" line="bus737#1" begin="00:38:00" end="24:00:00" period="3600"/>
    
    <route id="Bus737#2" edges="111681905#0 111681905#1 111681905#2 -74277990 -7365262 111677668#0 111677668#3 111677668#4 111677669#0 111677669#1 111677669#2 111677669#3 111677669#4 111677669#5 876057376 876343449#0 876343449#1 876343449#2 876343449#3 876343449#4 803012921#0 803012921#1 803012921#2 803012921#4 876343451#0 876343451#1 876343451#2 876343451#3 814303496#0 814303496#1 876343448#0 876343448#1 876343448#2 876343448#3 876343448#5 814061747#0 814061747#1 814061747#2 814061747#3 814061747#5 814061747#6 814061747#7 814061747#8 814061747#9 814061747#10 gneE0 828195561#0">
        <stop busStop="-2799026210" duration="30.00" until="60.00"/>
        <stop busStop="1234643898" duration="30.00" until="120.00"/>
        <stop busStop="295276561" duration="30.00" until="180.00"/>
        <stop busStop="3822420838" duration="30.00" until="240.00"/>
    </route>
	<flow id="737#2" route="Bus737#2" type="bus" line="bus737#2" begin="00:53:00" end="24:00:00" period="3600"/>
    
    <route id="Bus736#1" edges="-828195561#0 -gneE0 -814061747#10 -814061747#9 -814061747#8 -814061747#7 -814061747#6 -814061747#5 -814061747#3 -814061747#2 -814061747#1 -814061747#0 -876343448#5 -876343448#3 -876343448#2 -876343448#1 -876343448#0 -814303496#1 -814303496#0 -876343451#3 -876343451#2 -876343451#1 -876343451#0 -803012921#4 -803012921#3 -803012921#1 -803012921#0 -876343449#4 -876343449#3 -876343449#2 -876343449#1 -876343449#0 -4950193 -111677669#5 -111677669#4 -111677669#3 -111677669#2 -111677669#1 -111677669#0 -111677668#4 -111677668#3 -111677668#0 -835445203 -24337240#7 -24337240#6 -24337240#4 -24337240#3 -24337240#2 -24337240#1 -24337240#0 -120682114#3 -120682114#2 -120682114#1 -111681903#3 -111681903#2 -111681903#1 -111681903#0 -782714971#4 -782714971#3 -782714971#2 -782714971#1 -782714971#0 -783907721#2 -783907721#1 -783907721#0 -880137009#1 -880137009#0 747448014 880137010 37628709#0 37628709#1">
        <stop busStop="-1234643950" duration="30.00" until="0.00"/>
        <stop busStop="-7328303685" duration="30.00" until="60.00"/>
        <stop busStop="-1242393807" duration="30.00" until="120.00"/>
        <stop busStop="-1242393753" duration="30.00" until="180.00"/>
        <stop busStop="-1383533505" duration="30.00" until="240.00"/>
        <stop busStop="-7328339906" duration="30.00" until="300.00"/>
    </route>
	<flow id="736#1" route="Bus736#1" type="bus" line="bus736#1" begin="00:00:00" end="24:00:00" period="3600"/>
    
    <route id="Bus736#2" edges="-37628709#0 -880137010 782714970 58621262#0 58621262#1 880137009#0 880137009#1 783907721#0 783907721#1 783907721#2 782714971#0 782714971#1 782714971#2 782714971#3 782714971#4 111681903#0 111681903#1 111681903#2 111681903#3 120682114#1 120682114#2 120682114#3 24337240#0 24337240#1 24337240#2 24337240#3 24337240#4 24337240#5 24337240#7 835445203 111677668#0 111677668#3 111677668#4 111677669#0 111677669#1 111677669#2 111677669#3 111677669#4 111677669#5 876057376 876343449#0 876343449#1 876343449#2 876343449#3 876343449#4 803012921#0 803012921#1 803012921#2 803012921#4 876343451#0 876343451#1 876343451#2 876343451#3 814303496#0 814303496#1 876343448#0 876343448#1 876343448#2 876343448#3 876343448#5 814061747#0 814061747#1 814061747#2 814061747#3 814061747#5 814061747#6 814061747#7 814061747#8 814061747#9 814061747#10 gneE0 828195561#0 828195561#1 782710712 -28298231 -311298682#0 -311298658 -835443464 -311298662#1 -311298662#0 -782714966#1 -782714966#0 -502325084#3 -502325084#1 -502325084#0 -25970859#1 -25970859#0 -880140407 535519490#0 535519490#1 311298665 58621262#0 58621262#1 747448014 880137010 37628709#0 -37628709#0">
        <stop busStop="-1242393436" duration="30.00" until="60.00"/> <!--29min-->
        <stop busStop="1383533507" duration="30.00" until="120.00"/> <!--30-->
        <stop busStop="1242393899" duration="30.00" until="180.00"/> <!--31-->
        <stop busStop="1242393624" duration="30.00" until="240.00"/> <!--32-->
        <stop busStop="7328303585" duration="30.00" until="300.00"/> <!--33-->
        <stop busStop="1234643898" duration="30.00" until="360.00"/> <!--34-->
        <stop busStop="295276561" duration="30.00" until="420.00"/> <!--35-->
        <stop busStop="3822420838" duration="30.00" until="600.00"/> <!--38-->
    </route>
	<flow id="736#2" route="Bus736#2" type="bus" line="bus736#2" begin="00:28:00" end="24:00:00" period="3600"/>
	
        <route id="Bus735#1" edges="-205590836#0 -37628709#0 -880137010 782714970 -311298665 -535519490#1 -535519490#0 -4895001#0 -4935286#3 -4935286#2 -4935286#1 -4935286#0 4935287#0 4935287#1 4935287#2 783647325#0 783647325#1 26216780#0 26216780#1">
        <stop busStop="-1242393436" duration="0.00" until="60.00"/>
    </route>
	<flow id="735#1" route="Bus735#1" type="bus" line="bus735#1" begin="00:05:00" end="24:00:00" period="3600"/>
    
    <route id="Bus735#2" edges="4935299#0 4935299#1 26216779#0 26216779#1 26216781#0 26216781#1 26216781#2 26216781#3 4935286#0 4935286#1 4935286#2 4935286#3 131942152 535519490#0 535519490#1 311298665 58621262#0 58621262#1 747448014 880137010 37628709#0 37628709#1 205590836#2">
        <stop busStop="726485184" duration="30.00" until="60.00"/>
    </route>
	<flow id="735#2" route="Bus735#2" type="bus" line="bus735#2" begin="00:31:00" end="24:00:00" period="3600"/>
</routes>
