<?xml version="1.0" encoding="UTF-8"?>

<!-- generated on 2022-09-29 13:34:27 by Eclipse SUMO netconvert Version v1_14_1+1311-ab8f708ab1e
<configuration xmlns:xsi="http://www.w3.org/2001/XMLSchema-instance" xsi:noNamespaceSchemaLocation="http://sumo.dlr.de/xsd/netconvertConfiguration.xsd">

    <input>
        <node-files value="input_nodes.nod.xml"/>
        <edge-files value="input_edges.edg.xml"/>
        <connection-files value="input_connections.con.xml"/>
    </input>

    <output>
        <output-file value="pasubio_buslanes.net.xml"/>
    </output>

    <tls_building>
        <tls.ignore-internal-junction-jam value="true"/>
    </tls_building>

    <junctions>
        <check-lane-foes.all value="true"/>
    </junctions>

    <report>
        <verbose value="x"/>
    </report>

</configuration>
-->

<net version="1.9" junctionCornerDetail="5" limitTurnSpeed="5.50" checkLaneFoesAll="1" tlsIgnoreInternalJunctionJam="1" xmlns:xsi="http://www.w3.org/2001/XMLSchema-instance" xsi:noNamespaceSchemaLocation="http://sumo.dlr.de/xsd/net_file.xsd">

    <location netOffset="-683200.41,-4929458.50" convBoundary="0.00,0.00,1827.72,1339.53" origBoundary="-346.830000,0.000000,1817.580000,2148.550000" projParameter="+proj=utm +zone=32 +ellps=WGS84 +datum=WGS84 +units=m +no_defs"/>

    <edge id=":0_0" function="internal">
        <lane id=":0_0_0" index="0" speed="13.89" length="51.69" shape="415.06,438.40 408.90,429.49 399.75,417.76 390.23,406.31 382.99,398.21"/>
        <lane id=":0_0_1" index="1" speed="13.89" length="51.69" shape="417.67,436.52 411.46,427.55 402.20,415.71 392.58,404.13 385.29,395.99"/>
    </edge>
    <edge id=":0_2" function="internal">
        <lane id=":0_2_0" index="0" speed="12.44" length="18.39" shape="417.67,436.52 413.64,425.44 415.21,419.03"/>
    </edge>
    <edge id=":0_16" function="internal">
        <lane id=":0_16_0" index="0" speed="12.44" length="24.55" shape="415.21,419.03 415.70,417.03 423.10,410.80 435.08,406.28"/>
    </edge>
    <edge id=":0_3" function="internal">
        <lane id=":0_3_0" index="0" speed="13.89" length="45.20" shape="438.94,419.33 396.02,433.24"/>
        <lane id=":0_3_1" index="1" speed="13.89" length="45.20" shape="438.04,416.26 395.04,430.19"/>
        <lane id=":0_3_2" index="2" speed="13.89" length="45.20" shape="437.13,413.19 394.07,427.14"/>
    </edge>
    <edge id=":0_6" function="internal">
        <lane id=":0_6_0" index="0" speed="13.89" length="19.62" shape="437.13,413.19 423.83,415.34 417.76,414.35"/>
    </edge>
    <edge id=":0_17" function="internal">
        <lane id=":0_17_0" index="0" speed="13.89" length="38.06" shape="417.76,414.35 410.75,413.19 397.91,406.74 385.29,395.99"/>
    </edge>
    <edge id=":0_7" function="internal">
        <lane id=":0_7_0" index="0" speed="13.89" length="40.26" shape="397.85,383.81 405.06,388.93 413.43,395.25 422.86,399.92 433.27,400.14"/>
    </edge>
    <edge id=":0_8" function="internal">
        <lane id=":0_8_0" index="0" speed="13.89" length="54.06" shape="395.45,386.15 403.41,393.73 412.80,406.35 421.66,419.60 427.99,429.04"/>
        <lane id=":0_8_1" index="1" speed="13.89" length="54.06" shape="395.45,386.15 403.00,394.02 411.51,407.29 419.47,421.18 425.39,430.92"/>
    </edge>
    <edge id=":0_10" function="internal">
        <lane id=":0_10_0" index="0" speed="12.16" length="37.13" shape="395.45,386.15 406.73,396.17 410.40,408.13 407.09,417.06"/>
    </edge>
    <edge id=":0_18" function="internal">
        <lane id=":0_18_0" index="0" speed="12.16" length="16.90" shape="407.09,417.06 406.25,419.34 394.07,427.14"/>
    </edge>
    <edge id=":0_11" function="internal">
        <lane id=":0_11_0" index="0" speed="8.04" length="19.23" shape="389.77,413.72 391.68,411.97 391.19,408.80 388.29,404.21 382.99,398.21"/>
    </edge>
    <edge id=":0_12" function="internal">
        <lane id=":0_12_0" index="0" speed="13.89" length="45.49" shape="389.77,413.72 433.27,400.14"/>
        <lane id=":0_12_1" index="1" speed="13.89" length="45.49" shape="390.75,416.77 434.18,403.21"/>
        <lane id=":0_12_2" index="2" speed="13.89" length="45.49" shape="391.72,419.82 435.08,406.28"/>
    </edge>
    <edge id=":0_15" function="internal">
        <lane id=":0_15_0" index="0" speed="13.89" length="18.83" shape="391.72,419.82 401.54,417.92 410.29,419.12"/>
    </edge>
    <edge id=":0_19" function="internal">
        <lane id=":0_19_0" index="0" speed="13.89" length="19.43" shape="410.29,419.12 410.43,419.13 418.38,423.47 425.39,430.92"/>
    </edge>
    <edge id=":1_0" function="internal">
        <lane id=":1_0_0" index="0" speed="10.46" length="18.48" shape="928.30,297.26 926.18,293.77 922.90,291.32 918.44,289.91 912.83,289.54"/>
    </edge>
    <edge id=":1_1" function="internal">
        <lane id=":1_1_0" index="0" speed="13.89" length="34.53" shape="931.29,296.12 916.23,265.11"/>
        <lane id=":1_1_1" index="1" speed="13.89" length="34.53" shape="934.28,294.97 919.17,263.85"/>
    </edge>
    <edge id=":1_3" function="internal">
        <lane id=":1_3_0" index="0" speed="5.95" length="9.13" shape="941.30,287.72 938.70,288.22 937.17,289.40 936.69,291.27 937.27,293.83"/>
    </edge>
    <edge id=":1_4" function="internal">
        <lane id=":1_4_0" index="0" speed="13.89" length="28.54" shape="941.30,287.72 912.83,289.54"/>
        <lane id=":1_4_1" index="1" speed="13.89" length="28.54" shape="941.24,284.52 912.75,286.34"/>
    </edge>
    <edge id=":1_6" function="internal">
        <lane id=":1_6_0" index="0" speed="13.30" length="30.01" shape="941.18,281.31 934.47,280.50 928.56,277.31 923.46,271.77 919.17,263.85"/>
    </edge>
    <edge id=":1_7" function="internal">
        <lane id=":1_7_0" index="0" speed="10.72" length="17.97" shape="928.55,259.85 931.36,265.00 934.38,268.66 937.60,270.83 941.01,271.51"/>
    </edge>
    <edge id=":1_8" function="internal">
        <lane id=":1_8_0" index="0" speed="13.89" length="35.16" shape="928.55,259.85 932.31,270.25 934.59,280.20 936.03,288.47 937.27,293.83"/>
    </edge>
    <edge id=":1_9" function="internal">
        <lane id=":1_9_0" index="0" speed="10.88" length="35.58" shape="925.60,261.11 928.58,271.02 927.54,278.94 922.32,284.25 912.75,286.34"/>
        <lane id=":1_9_1" index="1" speed="9.86" length="28.97" shape="922.66,262.37 925.16,270.47 924.48,277.00 920.39,281.40 912.67,283.14"/>
    </edge>
    <edge id=":1_11" function="internal">
        <lane id=":1_11_0" index="0" speed="5.82" length="9.12" shape="912.37,271.07 915.00,270.66 916.52,269.54 916.93,267.68 916.23,265.11"/>
    </edge>
    <edge id=":1_12" function="internal">
        <lane id=":1_12_0" index="0" speed="13.89" length="28.63" shape="912.37,271.07 941.01,271.51"/>
        <lane id=":1_12_1" index="1" speed="13.89" length="28.63" shape="912.45,274.27 941.07,274.71"/>
    </edge>
    <edge id=":1_14" function="internal">
        <lane id=":1_14_0" index="0" speed="13.68" length="31.79" shape="912.53,277.47 920.97,278.40 927.90,281.43 933.34,286.58 937.27,293.83"/>
    </edge>
    <edge id=":10_0" function="internal">
        <lane id=":10_0_0" index="0" allow="bus" speed="13.89" length="21.62" shape="805.49,976.75 799.71,975.66 795.59,976.13 791.59,977.90 786.14,980.66"/>
        <lane id=":10_0_1" index="1" allow="bus" speed="13.89" length="21.62" shape="806.34,973.67 800.30,972.52 795.66,972.95 790.97,974.77 784.77,977.77"/>
    </edge>
    <edge id=":10_2" function="internal">
        <lane id=":10_2_0" index="0" allow="bus" speed="13.89" length="4.64" shape="806.34,973.67 801.93,972.26"/>
    </edge>
    <edge id=":10_3" function="internal">
        <lane id=":10_3_0" index="0" allow="bus" speed="7.51" length="4.45" shape="806.34,973.67 802.18,972.11"/>
    </edge>
    <edge id=":10_15" function="internal">
        <lane id=":10_15_0" index="0" allow="bus" speed="13.89" length="21.99" shape="801.93,972.26 797.36,970.80 790.54,967.79 785.91,964.63 783.44,961.32"/>
    </edge>
    <edge id=":10_16" function="internal">
        <lane id=":10_16_0" index="0" allow="bus" speed="7.51" length="16.11" shape="802.18,972.11 799.55,971.12 796.76,968.35 797.97,965.35 803.18,962.12"/>
    </edge>
    <edge id=":10_4" function="internal">
        <lane id=":10_4_0" index="0" speed="13.89" length="23.30" shape="805.87,967.92 784.77,977.77"/>
        <lane id=":10_4_1" index="1" speed="13.89" length="23.30" shape="804.52,965.02 783.40,974.88"/>
    </edge>
    <edge id=":10_6" function="internal">
        <lane id=":10_6_0" index="0" speed="10.16" length="7.15" shape="804.52,965.02 797.78,967.39"/>
    </edge>
    <edge id=":10_7" function="internal">
        <lane id=":10_7_0" index="0" speed="3.65" length="1.44" shape="804.52,965.02 803.10,964.80"/>
    </edge>
    <edge id=":10_17" function="internal">
        <lane id=":10_17_0" index="0" speed="10.16" length="17.23" shape="797.78,967.39 797.03,967.65 791.02,967.91 786.49,965.80 783.44,961.32"/>
    </edge>
    <edge id=":10_18" function="internal">
        <lane id=":10_18_0" index="0" speed="3.65" length="3.23" shape="803.10,964.80 802.40,964.24 802.43,963.35 803.18,962.12"/>
    </edge>
    <edge id=":10_8" function="internal">
        <lane id=":10_8_0" index="0" speed="8.53" length="16.85" shape="786.41,960.11 788.17,962.03 791.33,962.52 795.89,961.58 801.83,959.21"/>
    </edge>
    <edge id=":10_9" function="internal">
        <lane id=":10_9_0" index="0" speed="8.85" length="16.83" shape="786.41,960.11 787.92,965.23 787.93,969.40 786.42,972.61 783.40,974.88"/>
    </edge>
    <edge id=":10_10" function="internal">
        <lane id=":10_10_0" index="0" speed="3.65" length="1.44" shape="786.41,960.11 786.12,961.53"/>
    </edge>
    <edge id=":10_19" function="internal">
        <lane id=":10_19_0" index="0" speed="3.65" length="3.23" shape="786.12,961.53 785.53,962.20 784.64,962.13 783.44,961.32"/>
    </edge>
    <edge id=":10_11" function="internal">
        <lane id=":10_11_0" index="0" speed="6.73" length="9.30" shape="780.66,969.09 782.70,967.72 783.85,965.97 784.09,963.83 783.44,961.32"/>
    </edge>
    <edge id=":10_12" function="internal">
        <lane id=":10_12_0" index="0" speed="13.89" length="23.35" shape="780.66,969.09 801.83,959.21"/>
        <lane id=":10_12_1" index="1" speed="13.89" length="23.35" shape="782.03,971.98 803.18,962.12"/>
    </edge>
    <edge id=":10_14" function="internal">
        <lane id=":10_14_0" index="0" speed="3.65" length="1.44" shape="782.03,971.98 783.46,972.19"/>
    </edge>
    <edge id=":10_20" function="internal">
        <lane id=":10_20_0" index="0" speed="3.65" length="3.23" shape="783.46,972.19 784.16,972.74 784.14,973.64 783.40,974.88"/>
    </edge>
    <edge id=":12_0" function="internal">
        <lane id=":12_0_0" index="0" speed="13.89" length="15.13" shape="703.96,1019.58 700.17,1021.92 697.96,1024.17 695.74,1026.39 691.92,1028.66"/>
        <lane id=":12_0_1" index="1" speed="13.89" length="15.13" shape="702.59,1016.68 698.81,1019.02 696.62,1021.26 694.41,1023.48 690.60,1025.74"/>
        <lane id=":12_0_2" index="2" speed="13.89" length="15.13" shape="701.22,1013.79 697.46,1016.12 695.28,1018.36 693.08,1020.57 689.29,1022.82"/>
    </edge>
    <edge id=":12_3" function="internal">
        <lane id=":12_3_0" index="0" speed="8.63" length="7.14" shape="701.22,1013.79 697.35,1014.79 694.30,1014.01"/>
    </edge>
    <edge id=":12_9" function="internal">
        <lane id=":12_9_0" index="0" speed="8.63" length="9.86" shape="694.30,1014.01 693.88,1013.91 690.82,1011.17 688.17,1006.55"/>
    </edge>
    <edge id=":12_4" function="internal">
        <lane id=":12_4_0" index="0" speed="6.45" length="9.03" shape="691.10,1005.26 692.42,1007.37 694.08,1008.53 696.10,1008.74 698.48,1008.01"/>
        <lane id=":12_4_1" index="1" speed="7.27" length="11.77" shape="691.10,1005.26 692.99,1008.65 695.07,1010.71 697.36,1011.47 699.85,1010.90"/>
    </edge>
    <edge id=":12_6" function="internal">
        <lane id=":12_6_0" index="0" speed="8.71" length="16.92" shape="691.10,1005.26 692.73,1010.32 692.76,1014.44 691.17,1017.64 687.98,1019.90"/>
    </edge>
    <edge id=":12_7" function="internal">
        <lane id=":12_7_0" index="0" allow="bus" speed="7.37" length="11.83" shape="686.67,1016.98 688.67,1015.47 689.59,1013.23 689.43,1010.26 688.17,1006.55"/>
    </edge>
    <edge id=":12_8" function="internal">
        <lane id=":12_8_0" index="0" allow="bus" speed="13.89" length="14.91" shape="686.67,1016.98 689.49,1015.16 691.77,1012.92 694.45,1010.46 698.48,1008.01"/>
    </edge>
    <edge id=":13_0" function="internal">
        <lane id=":13_0_0" index="0" speed="13.89" length="1.56" shape="232.69,1215.10 234.12,1214.54"/>
        <lane id=":13_0_1" index="1" speed="13.89" length="1.56" shape="233.99,1218.02 235.46,1217.44"/>
    </edge>
    <edge id=":14_0" function="internal">
        <lane id=":14_0_0" index="0" speed="13.89" length="8.26" shape="305.26,1181.87 312.69,1178.84"/>
        <lane id=":14_0_1" index="1" speed="13.89" length="8.26" shape="306.59,1184.78 313.94,1181.79"/>
        <lane id=":14_0_2" index="2" speed="13.89" length="8.26" shape="306.59,1184.78 309.02,1184.25 310.87,1184.71 312.72,1185.20 315.18,1184.73"/>
    </edge>
    <edge id=":15_0" function="internal">
        <lane id=":15_0_0" index="0" speed="7.55" length="12.18" shape="1357.69,720.40 1355.58,716.93 1353.35,714.77 1351.00,713.93 1348.53,714.42"/>
    </edge>
    <edge id=":15_1" function="internal">
        <lane id=":15_1_0" index="0" speed="13.89" length="21.26" shape="1360.56,718.98 1351.44,699.78"/>
    </edge>
    <edge id=":15_2" function="internal">
        <lane id=":15_2_0" index="0" speed="6.41" length="9.03" shape="1368.94,708.76 1366.83,710.08 1365.69,711.75 1365.51,713.77 1366.29,716.13"/>
    </edge>
    <edge id=":15_3" function="internal">
        <lane id=":15_3_0" index="0" speed="13.89" length="21.25" shape="1368.94,708.76 1362.95,710.88 1358.52,711.65 1354.20,712.40 1348.53,714.42"/>
        <lane id=":15_3_1" index="1" speed="13.89" length="21.25" shape="1367.61,705.84 1361.62,707.96 1357.20,708.74 1352.88,709.48 1347.21,711.51"/>
    </edge>
    <edge id=":15_5" function="internal">
        <lane id=":15_5_0" index="0" speed="8.73" length="5.81" shape="1366.29,702.93 1361.12,704.62 1360.75,704.62"/>
    </edge>
    <edge id=":15_12" function="internal">
        <lane id=":15_12_0" index="0" speed="8.73" length="11.40" shape="1360.75,704.62 1356.93,704.66 1353.70,703.04 1351.44,699.78"/>
    </edge>
    <edge id=":15_6" function="internal">
        <lane id=":15_6_0" index="0" allow="bus" speed="6.54" length="9.26" shape="1357.31,697.22 1358.62,699.33 1360.33,700.48 1362.43,700.69 1364.92,699.94"/>
    </edge>
    <edge id=":15_7" function="internal">
        <lane id=":15_7_0" index="0" speed="13.89" length="21.02" shape="1357.31,697.22 1366.29,716.13"/>
        <lane id=":15_7_1" index="1" speed="13.89" length="21.02" shape="1354.37,698.50 1363.43,717.56"/>
    </edge>
    <edge id=":15_9" function="internal">
        <lane id=":15_9_0" index="0" speed="8.70" length="3.31" shape="1354.37,698.50 1355.11,701.72"/>
    </edge>
    <edge id=":15_13" function="internal">
        <lane id=":15_13_0" index="0" speed="8.70" length="13.47" shape="1355.11,701.72 1355.25,702.37 1354.35,705.82 1351.67,708.87 1347.21,711.51"/>
    </edge>
    <edge id=":15_10" function="internal">
        <lane id=":15_10_0" index="0" allow="bus" speed="7.36" length="11.70" shape="1345.89,708.59 1349.17,706.71 1351.19,704.61 1351.95,702.30 1351.44,699.78"/>
    </edge>
    <edge id=":15_11" function="internal">
        <lane id=":15_11_0" index="0" allow="bus" speed="13.89" length="20.91" shape="1345.89,708.59 1364.92,699.94"/>
    </edge>
    <edge id=":16_0" function="internal">
        <lane id=":16_0_0" index="0" speed="13.89" length="0.33" shape="102.28,653.27 102.65,653.67"/>
        <lane id=":16_0_1" index="1" speed="13.89" length="0.33" shape="99.99,655.50 100.22,655.75"/>
        <lane id=":16_0_2" index="2" speed="13.89" length="0.33" shape="97.71,657.74 97.78,657.82"/>
    </edge>
    <edge id=":17_0" function="internal">
        <lane id=":17_0_0" index="0" speed="6.51" length="9.01" shape="212.99,744.59 210.89,745.87 209.69,747.52 209.41,749.54 210.04,751.92"/>
    </edge>
    <edge id=":17_1" function="internal">
        <lane id=":17_1_0" index="0" speed="3.65" length="4.67" shape="212.99,744.59 211.58,744.33 210.89,743.75 210.95,742.86 211.74,741.65"/>
    </edge>
    <edge id=":17_2" function="internal">
        <lane id=":17_2_0" index="0" speed="11.27" length="25.10" shape="192.10,729.05 197.41,735.96 202.46,740.37 207.23,742.26 211.74,741.65"/>
    </edge>
    <edge id=":17_3" function="internal">
        <lane id=":17_3_0" index="0" speed="13.89" length="28.88" shape="192.10,729.05 196.70,734.84 201.69,740.15 206.37,745.63 210.04,751.92"/>
        <lane id=":17_3_1" index="1" speed="13.89" length="28.88" shape="189.44,730.83 193.99,736.53 198.88,741.67 203.47,746.96 207.09,753.17"/>
    </edge>
    <edge id=":18_0" function="internal">
        <lane id=":18_0_0" index="0" speed="7.45" length="11.93" shape="514.79,621.84 513.22,619.75 510.95,618.74 507.98,618.83 504.30,620.01"/>
    </edge>
    <edge id=":18_1" function="internal">
        <lane id=":18_1_0" index="0" speed="13.89" length="15.19" shape="514.79,621.84 512.80,618.65 510.31,615.73 507.81,612.82 505.80,609.64"/>
    </edge>
    <edge id=":18_2" function="internal">
        <lane id=":18_2_0" index="0" allow="bus" speed="8.40" length="4.93" shape="514.79,621.84 513.80,617.98 514.02,617.05"/>
    </edge>
    <edge id=":18_12" function="internal">
        <lane id=":18_12_0" index="0" allow="bus" speed="8.40" length="11.42" shape="514.02,617.05 514.62,614.61 517.24,611.74 521.66,609.36"/>
    </edge>
    <edge id=":18_3" function="internal">
        <lane id=":18_3_0" index="0" speed="7.01" length="11.03" shape="522.85,612.33 519.70,613.97 517.80,615.88 517.13,618.06 517.69,620.50"/>
    </edge>
    <edge id=":18_4" function="internal">
        <lane id=":18_4_0" index="0" speed="13.89" length="20.07" shape="522.85,612.33 504.30,620.01"/>
    </edge>
    <edge id=":18_5" function="internal">
        <lane id=":18_5_0" index="0" speed="9.20" length="6.45" shape="522.85,612.33 518.19,613.37 516.51,613.35"/>
    </edge>
    <edge id=":18_13" function="internal">
        <lane id=":18_13_0" index="0" speed="9.20" length="11.80" shape="516.51,613.35 513.03,613.29 508.51,612.05 505.80,609.64"/>
    </edge>
    <edge id=":18_6" function="internal">
        <lane id=":18_6_0" index="0" allow="bus" speed="6.83" length="9.58" shape="513.91,605.83 515.38,608.14 517.16,609.50 519.26,609.90 521.66,609.36"/>
    </edge>
    <edge id=":18_7" function="internal">
        <lane id=":18_7_0" index="0" speed="13.89" length="15.21" shape="513.91,605.83 515.57,610.37 516.23,614.03 516.68,617.26 517.69,620.50"/>
    </edge>
    <edge id=":18_8" function="internal">
        <lane id=":18_8_0" index="0" speed="8.49" length="6.36" shape="511.01,607.19 512.06,611.10 511.56,613.36"/>
    </edge>
    <edge id=":18_14" function="internal">
        <lane id=":18_14_0" index="0" speed="8.49" length="10.21" shape="511.56,613.36 511.29,614.53 508.71,617.51 504.30,620.01"/>
    </edge>
    <edge id=":18_9" function="internal">
        <lane id=":18_9_0" index="0" speed="6.46" length="9.11" shape="503.04,617.07 505.17,615.77 506.33,614.10 506.55,612.06 505.80,609.64"/>
    </edge>
    <edge id=":18_10" function="internal">
        <lane id=":18_10_0" index="0" allow="bus" speed="13.89" length="20.15" shape="503.04,617.07 521.66,609.36"/>
    </edge>
    <edge id=":18_11" function="internal">
        <lane id=":18_11_0" index="0" speed="8.57" length="5.66" shape="503.04,617.07 507.02,616.20 508.60,616.32"/>
    </edge>
    <edge id=":18_15" function="internal">
        <lane id=":18_15_0" index="0" speed="8.57" length="10.44" shape="508.60,616.32 511.40,616.53 515.27,617.98 517.69,620.50"/>
    </edge>
    <edge id=":19_0" function="internal">
        <lane id=":19_0_0" index="0" speed="6.47" length="9.03" shape="612.59,835.28 611.27,833.17 609.61,832.01 607.58,831.78 605.21,832.50"/>
    </edge>
    <edge id=":19_1" function="internal">
        <lane id=":19_1_0" index="0" speed="13.89" length="14.42" shape="612.59,835.28 606.67,822.13"/>
    </edge>
    <edge id=":19_2" function="internal">
        <lane id=":19_2_0" index="0" speed="7.90" length="4.03" shape="612.59,835.28 611.53,831.50 611.54,831.39"/>
    </edge>
    <edge id=":19_9" function="internal">
        <lane id=":19_9_0" index="0" speed="7.90" length="10.16" shape="611.54,831.39 611.94,828.34 613.84,825.78 617.22,823.84"/>
    </edge>
    <edge id=":19_3" function="internal">
        <lane id=":19_3_0" index="0" speed="6.70" length="9.28" shape="609.58,820.79 610.94,822.91 612.67,824.13 614.76,824.43 617.22,823.84"/>
    </edge>
    <edge id=":19_4" function="internal">
        <lane id=":19_4_0" index="0" speed="13.89" length="14.47" shape="609.58,820.79 615.52,833.99"/>
    </edge>
    <edge id=":19_5" function="internal">
        <lane id=":19_5_0" index="0" speed="8.03" length="4.11" shape="609.58,820.79 610.68,824.52 610.65,824.74"/>
    </edge>
    <edge id=":19_10" function="internal">
        <lane id=":19_10_0" index="0" speed="8.03" length="10.13" shape="610.65,824.74 610.32,827.71 608.49,830.37 605.21,832.50"/>
    </edge>
    <edge id=":19_6" function="internal">
        <lane id=":19_6_0" index="0" speed="6.54" length="9.09" shape="603.86,829.60 605.96,828.23 607.13,826.53 607.37,824.50 606.67,822.13"/>
    </edge>
    <edge id=":19_7" function="internal">
        <lane id=":19_7_0" index="0" speed="13.89" length="14.55" shape="603.86,829.60 617.22,823.84"/>
    </edge>
    <edge id=":19_8" function="internal">
        <lane id=":19_8_0" index="0" speed="7.97" length="14.26" shape="603.86,829.60 607.61,828.47 610.81,828.82 613.44,830.66 615.52,833.99"/>
    </edge>
    <edge id=":2_0" function="internal">
        <lane id=":2_0_0" index="0" speed="6.88" length="10.13" shape="730.35,321.11 728.97,318.51 727.20,316.93 725.05,316.39 722.50,316.88"/>
    </edge>
    <edge id=":2_1" function="internal">
        <lane id=":2_1_0" index="0" speed="6.21" length="9.05" shape="736.99,313.27 734.62,314.15 733.22,315.56 732.79,317.51 733.34,319.98"/>
    </edge>
    <edge id=":2_2" function="internal">
        <lane id=":2_2_0" index="0" speed="13.89" length="15.41" shape="736.99,313.27 732.63,314.13 729.64,314.70 726.69,315.45 722.50,316.88"/>
        <lane id=":2_2_1" index="1" speed="13.89" length="15.41" shape="736.32,310.14 731.83,311.03 728.75,311.62 725.72,312.40 721.40,313.87"/>
        <lane id=":2_2_2" index="2" speed="13.89" length="15.41" shape="735.65,307.01 731.03,307.93 727.86,308.54 724.74,309.35 720.30,310.87"/>
    </edge>
    <edge id=":20_0" function="internal">
        <lane id=":20_0_0" index="0" speed="13.89" length="18.05" shape="441.82,479.99 438.87,477.01 435.05,474.12 431.01,471.48 427.40,469.24"/>
    </edge>
    <edge id=":20_1" function="internal">
        <lane id=":20_1_0" index="0" speed="13.89" length="17.86" shape="441.82,479.99 439.47,477.18 436.95,474.28 434.16,470.67 431.00,465.74"/>
        <lane id=":20_1_1" index="1" speed="13.89" length="17.86" shape="441.82,479.99 439.90,476.92 438.32,473.46 436.48,469.29 433.77,464.13"/>
    </edge>
    <edge id=":21_0" function="internal">
        <lane id=":21_0_0" index="0" speed="13.89" length="0.92" shape="358.13,368.64 358.54,368.59 358.82,368.57 359.10,368.59 359.50,368.65"/>
        <lane id=":21_0_1" index="1" speed="13.89" length="0.92" shape="358.56,371.81 358.69,371.79 358.79,371.79 358.88,371.79 359.01,371.81"/>
    </edge>
    <edge id=":22_0" function="internal">
        <lane id=":22_0_0" index="0" speed="13.89" length="18.23" shape="446.73,446.73 447.30,452.00 447.48,455.67 448.09,459.23 449.90,464.13"/>
        <lane id=":22_0_1" index="1" speed="13.89" length="18.23" shape="443.56,447.22 444.17,452.74 444.40,456.58 445.06,460.29 446.97,465.43"/>
    </edge>
    <edge id=":22_2" function="internal">
        <lane id=":22_2_0" index="0" speed="13.89" length="18.43" shape="440.10,448.38 449.90,464.13"/>
        <lane id=":22_2_1" index="1" speed="13.89" length="18.43" shape="437.27,449.88 446.97,465.43"/>
    </edge>
    <edge id=":23_0" function="internal">
        <lane id=":23_0_0" index="0" speed="6.82" length="10.19" shape="803.33,509.52 802.05,507.38 800.20,506.23 797.79,506.05 794.81,506.87"/>
    </edge>
    <edge id=":23_1" function="internal">
        <lane id=":23_1_0" index="0" speed="13.89" length="17.77" shape="803.33,509.52 801.62,505.71 799.46,501.53 797.29,497.35 795.59,493.54"/>
    </edge>
    <edge id=":23_2" function="internal">
        <lane id=":23_2_0" index="0" speed="8.47" length="15.80" shape="803.33,509.52 801.89,504.43 801.82,500.41 803.13,497.46 805.80,495.59"/>
    </edge>
    <edge id=":23_3" function="internal">
        <lane id=":23_3_0" index="0" speed="13.89" length="14.39" shape="806.98,498.56 793.62,503.90"/>
    </edge>
    <edge id=":23_4" function="internal">
        <lane id=":23_4_0" index="0" speed="7.97" length="4.07" shape="806.98,498.56 803.18,499.48 803.02,499.45"/>
    </edge>
    <edge id=":23_10" function="internal">
        <lane id=":23_10_0" index="0" speed="7.97" length="10.19" shape="803.02,499.45 800.01,498.95 797.48,496.97 795.59,493.54"/>
    </edge>
    <edge id=":23_5" function="internal">
        <lane id=":23_5_0" index="0" speed="6.47" length="9.03" shape="798.58,492.41 799.78,494.58 801.38,495.83 803.39,496.17 805.80,495.59"/>
    </edge>
    <edge id=":23_6" function="internal">
        <lane id=":23_6_0" index="0" speed="8.06" length="14.21" shape="798.58,492.41 799.44,496.22 798.90,499.41 796.96,501.97 793.62,503.90"/>
    </edge>
    <edge id=":23_7" function="internal">
        <lane id=":23_7_0" index="0" speed="3.65" length="4.67" shape="798.58,492.41 798.26,493.81 797.65,494.47 796.76,494.38 795.59,493.54"/>
    </edge>
    <edge id=":23_8" function="internal">
        <lane id=":23_8_0" index="0" allow="bus" speed="6.58" length="9.12" shape="792.43,500.93 794.56,499.69 795.80,498.05 796.14,496.00 795.59,493.54"/>
    </edge>
    <edge id=":23_9" function="internal">
        <lane id=":23_9_0" index="0" allow="bus" speed="13.89" length="14.40" shape="792.43,500.93 805.80,495.59"/>
    </edge>
    <edge id=":24_0" function="internal">
        <lane id=":24_0_0" index="0" speed="4.32" length="1.13" shape="486.39,887.64 486.09,887.79 485.90,887.93 485.76,888.12 485.61,888.41"/>
    </edge>
    <edge id=":24_1" function="internal">
        <lane id=":24_1_0" index="0" speed="6.88" length="3.40" shape="482.72,887.05 483.17,886.16 483.58,885.60 484.15,885.18 485.04,884.74"/>
    </edge>
    <edge id=":26_0" function="internal">
        <lane id=":26_0_0" index="0" speed="3.65" length="4.67" shape="715.67,794.50 715.96,793.09 716.55,792.41 717.44,792.48 718.63,793.29"/>
    </edge>
    <edge id=":26_1" function="internal">
        <lane id=":26_1_0" index="0" speed="6.52" length="8.48" shape="721.28,786.20 719.40,787.52 718.33,789.14 718.07,791.07 718.63,793.29"/>
    </edge>
    <edge id=":26_2" function="internal">
        <lane id=":26_2_0" index="0" speed="8.04" length="10.35" shape="707.32,787.91 710.97,787.07 714.07,787.69 716.63,789.76 716.70,789.89"/>
    </edge>
    <edge id=":26_3" function="internal">
        <lane id=":26_3_0" index="0" speed="8.04" length="3.91" shape="716.70,789.89 718.63,793.29"/>
    </edge>
    <edge id=":26.-170_0" function="internal">
        <lane id=":26.-170_0_0" index="0" speed="13.89" length="8.00" shape="675.29,551.28 667.87,554.26"/>
    </edge>
    <edge id=":27_0" function="internal">
        <lane id=":27_0_0" index="0" speed="13.89" length="11.02" shape="960.53,897.73 957.47,898.63 955.16,898.51 952.84,898.40 949.79,899.32"/>
        <lane id=":27_0_1" index="1" speed="13.89" length="11.02" shape="959.16,894.84 956.10,895.74 953.78,895.63 951.46,895.52 948.40,896.44"/>
    </edge>
    <edge id=":27_2" function="internal">
        <lane id=":27_2_0" index="0" speed="7.80" length="2.34" shape="957.79,891.95 955.48,892.30"/>
    </edge>
    <edge id=":27_5" function="internal">
        <lane id=":27_5_0" index="0" speed="7.80" length="11.71" shape="955.48,892.30 955.30,892.33 952.90,891.05 950.59,888.13 948.38,883.55"/>
    </edge>
    <edge id=":27_3" function="internal">
        <lane id=":27_3_0" index="0" speed="6.52" length="8.59" shape="945.62,890.68 947.55,889.38 948.66,887.76 948.94,885.82 948.38,883.55"/>
    </edge>
    <edge id=":27_4" function="internal">
        <lane id=":27_4_0" index="0" allow="bus" speed="13.89" length="10.44" shape="947.01,893.56 956.42,889.06"/>
    </edge>
    <edge id=":28_0" function="internal">
        <lane id=":28_0_0" index="0" speed="13.89" length="11.24" shape="879.92,712.53 875.85,702.06"/>
    </edge>
    <edge id=":28_1" function="internal">
        <lane id=":28_1_0" index="0" speed="6.38" length="4.14" shape="883.06,705.07 880.66,705.75 879.03,705.53"/>
    </edge>
    <edge id=":28_2" function="internal">
        <lane id=":28_2_0" index="0" speed="6.38" length="4.89" shape="879.03,705.53 878.66,705.48 877.06,704.25 875.85,702.06"/>
    </edge>
    <edge id=":29_0" function="internal">
        <lane id=":29_0_0" index="0" speed="13.89" length="14.75" shape="1152.67,803.34 1148.99,805.57 1146.86,807.75 1144.75,809.96 1141.09,812.24"/>
        <lane id=":29_0_1" index="1" speed="13.89" length="14.75" shape="1151.35,800.43 1147.65,802.66 1145.52,804.85 1143.39,807.06 1139.72,809.35"/>
    </edge>
    <edge id=":29_2" function="internal">
        <lane id=":29_2_0" index="0" speed="7.93" length="3.95" shape="1151.35,800.43 1147.56,801.53"/>
    </edge>
    <edge id=":29_8" function="internal">