<?xml version="1.0" encoding="UTF-8"?>
<!-- generated on 2022-02-02 11:23:35.330908 by gtfs2pt.py UNKNOWN
  options: -n osm.net.xml <doubleminus>gtfs gtfs.zip <doubleminus>date 20210408 <doubleminus>vtype-output pt_vtypes.xml
-->
<additional xmlns:xsi="http://www.w3.org/2001/XMLSchema-instance" xsi:noNamespaceSchemaLocation="http://sumo.dlr.de/xsd/additional_file.xsd">
    <busStop id="325187141#1:18.64" lane="325187141#1_1" startPos="5.64" endPos="31.64" friendlyPos="true" name="Bad Hersfeld Bahnhof">
    </busStop>
    <busStop id="23979551#0:19.78" lane="23979551#0_1" startPos="6.78" endPos="32.78" friendlyPos="true" name="Bad Hersfeld Breitenstraße">
    </busStop>
    <busStop id="102344318:29.47" lane="102344318_1" startPos="16.47" endPos="42.47" friendlyPos="true" name="Bad Hersfeld Am Peterstor">
    </busStop>
    <busStop id="321421855#0:11.40" lane="321421855#0_1" startPos="0.00" endPos="24.40" friendlyPos="true" name="Bad Hersfeld Wilhelmshof">
    </busStop>
    <busStop id="67332191#2:104.38" lane="67332191#2_1" startPos="91.38" endPos="117.38" friendlyPos="true" name="Bad Hersfeld-Sorga Lindenallee">
    </busStop>
    <busStop id="321421861#7:19.42" lane="321421861#7_1" startPos="6.42" endPos="32.42" friendlyPos="true" name="Bad Hersfeld-Sorga Bienrückstraße">
    </busStop>
    <busStop id="67332189#3:24.69" lane="67332189#3_1" startPos="11.69" endPos="37.69" friendlyPos="true" name="Bad Hersfeld-Sorga Forsthaus">
    </busStop>
    <busStop id="-67332189#3:0.00" lane="-67332189#3_1" startPos="0.00" endPos="13.00" friendlyPos="true" name="Bad Hersfeld-Sorga Forsthaus">
    </busStop>
    <busStop id="-321421861#7:8.18" lane="-321421861#7_1" startPos="0.00" endPos="21.18" friendlyPos="true" name="Bad Hersfeld-Sorga Bienrückstraße">
    </busStop>
    <busStop id="-67332191#2:7.81" lane="-67332191#2_1" startPos="0.00" endPos="20.81" friendlyPos="true" name="Bad Hersfeld-Sorga Lindenallee">
    </busStop>
    <busStop id="-321421855#0:64.99" lane="-321421855#0_1" startPos="51.99" endPos="77.99" friendlyPos="true" name="Bad Hersfeld Wilhelmshof">
    </busStop>
    <busStop id="102344315:30.81" lane="102344315_1" startPos="17.81" endPos="43.81" friendlyPos="true" name="Bad Hersfeld Am Peterstor">
    </busStop>
    <busStop id="159980917:0.00" lane="159980917_1" startPos="0.00" endPos="13.00" friendlyPos="true" name="Bad Hersfeld Breitenstraße">
    </busStop>
    <busStop id="65547466:60.80" lane="65547466_1" startPos="47.80" endPos="73.80" friendlyPos="true" name="Bad Hersfeld Bahnhof">
    </busStop>
    <busStop id="151702609#1:11.28" lane="151702609#1_1" startPos="0.00" endPos="24.28" friendlyPos="true" name="Bad Hersfeld Autohof">
    </busStop>
    <busStop id="827721826#1:64.09" lane="827721826#1_1" startPos="51.09" endPos="77.09" friendlyPos="true" name="Bad Hersfeld Am Frauenberg">
    </busStop>
    <busStop id="-218965108#1:7.15" lane="-218965108#1_1" startPos="0.00" endPos="20.15" friendlyPos="true" name="Bad Hersfeld Am Schwimmbad">
    </busStop>
    <busStop id="157535157#2:27.64" lane="157535157#2_1" startPos="14.64" endPos="40.64" friendlyPos="true" name="Bad Hersfeld Hauptfriedhof">
    </busStop>
    <busStop id="50371428#0:0.00" lane="50371428#0_1" startPos="0.00" endPos="13.00" friendlyPos="true" name="Bad Hersfeld Sternerstraße">
    </busStop>
    <busStop id="50371428#1:61.57" lane="50371428#1_1" startPos="48.57" endPos="74.57" friendlyPos="true" name="Bad Hersfeld Ludwig-Braun-Straße 1">
    </busStop>
    <busStop id="26013136#2:128.89" lane="26013136#2_1" startPos="115.89" endPos="141.89" friendlyPos="true" name="Bad Hersfeld Elisabeth-Selbert-Straße">
    </busStop>
    <busStop id="-26013136#1:144.37" lane="-26013136#1_1" startPos="131.37" endPos="157.37" friendlyPos="true" name="Bad Hersfeld Johannes-Klein-Straße">
    </busStop>
    <busStop id="243586471:110.05" lane="243586471_1" startPos="97.05" endPos="123.05" friendlyPos="true" name="Bad Hersfeld Tageberg/Hainbergklinik">
    </busStop>
    <busStop id="-26013139:0.00" lane="-26013139_1" startPos="0.00" endPos="13.00" friendlyPos="true" name="Bad Hersfeld Ludwig-Braun-Straße 2">
    </busStop>
    <busStop id="34315031#1:84.62" lane="34315031#1_1" startPos="71.62" endPos="97.62" friendlyPos="true" name="Bad Hersfeld Ludwig-Braun-Straße 3">
    </busStop>
    <busStop id="-34315031#0:47.76" lane="-34315031#0_1" startPos="34.76" endPos="60.76" friendlyPos="true" name="Bad Hersfeld Scheidemannstraße">
    </busStop>
    <busStop id="-104709794#2:38.68" lane="-104709794#2_1" startPos="25.68" endPos="51.68" friendlyPos="true" name="Bad Hersfeld Stresemannallee 1">
    </busStop>
    <busStop id="-104709794#1:36.08" lane="-104709794#1_1" startPos="23.08" endPos="49.08" friendlyPos="true" name="Bad Hersfeld Stresemannallee 2">
    </busStop>
    <busStop id="-23696275#20:27.58" lane="-23696275#20_1" startPos="14.58" endPos="40.58" friendlyPos="true" name="Bad Hersfeld Michael-Schnabrich-Straße">
    </busStop>
    <busStop id="105197723:87.26" lane="105197723_1" startPos="74.26" endPos="100.26" friendlyPos="true" name="Bad Hersfeld Reckeröder Straße">
    </busStop>
    <busStop id="-34750129#1:0.00" lane="-34750129#1_1" startPos="0.00" endPos="13.00" friendlyPos="true" name="Bad Hersfeld Heinrich-Heine-Straße">
    </busStop>
    <busStop id="-27273765#3:34.89" lane="-27273765#3_1" startPos="21.89" endPos="47.89" friendlyPos="true" name="Bad Hersfeld Finkenweg 1">
    </busStop>
    <busStop id="-27273765#1:189.54" lane="-27273765#1_1" startPos="176.54" endPos="202.54" friendlyPos="true" name="Bad Hersfeld Finkenweg 2">
    </busStop>
    <busStop id="-27273765#1:561.09" lane="-27273765#1_1" startPos="548.09" endPos="574.09" friendlyPos="true" name="Bad Hersfeld Finkenweg 3">
    </busStop>
    <busStop id="50071472#4:342.65" lane="50071472#4_1" startPos="329.65" endPos="355.65" friendlyPos="true" name="Bad Hersfeld Am Schwimmbad">
    </busStop>
    <busStop id="50071472#5:69.82" lane="50071472#5_1" startPos="56.82" endPos="82.82" friendlyPos="true" name="Bad Hersfeld Hauptfriedhof">
    </busStop>
    <busStop id="172189511#2:15.12" lane="172189511#2_1" startPos="2.12" endPos="28.12" friendlyPos="true" name="Bad Hersfeld Lappenlied/Friedhof">
    </busStop>
    <busStop id="172189511#3:184.98" lane="172189511#3_1" startPos="171.98" endPos="197.98" friendlyPos="true" name="Bad Hersfeld Lappenlied">
    </busStop>
    <busStop id="172189511#9:31.05" lane="172189511#9_1" startPos="18.05" endPos="44.05" friendlyPos="true" name="Bad Hersfeld Schwingstock">
    </busStop>
    <busStop id="61454714#5:41.00" lane="61454714#5_1" startPos="28.00" endPos="54.00" friendlyPos="true" name="Bad Hersfeld Falkenblick">
    </busStop>
    <busStop id="-172189511#12:22.16" lane="-172189511#12_1" startPos="9.16" endPos="35.16" friendlyPos="true" name="Bad Hersfeld Eisenbergstraße">
    </busStop>
    <busStop id="-172189511#11:34.12" lane="-172189511#11_1" startPos="21.12" endPos="47.12" friendlyPos="true" name="Bad Hersfeld Merßeberg">
    </busStop>
    <busStop id="-159949969#3:375.54" lane="-159949969#3_1" startPos="362.54" endPos="388.54" friendlyPos="true" name="Bad Hersfeld Mönchesweg">
    </busStop>
    <busStop id="27273779#1:0.70" lane="27273779#1_1" startPos="0.00" endPos="13.70" friendlyPos="true" name="Bad Hersfeld Lax">
    </busStop>
    <busStop id="27273779#6:0.00" lane="27273779#6_1" startPos="0.00" endPos="13.00" friendlyPos="true" name="Bad Hersfeld Schlippental">
    </busStop>
    <busStop id="23696275#12:9.94" lane="23696275#12_1" startPos="0.00" endPos="22.94" friendlyPos="true" name="Bad Hersfeld Meisebacher Straße">
    </busStop>
    <busStop id="-23696275#17:7.45" lane="-23696275#17_1" startPos="0.00" endPos="20.45" friendlyPos="true" name="Bad Hersfeld Eisteich">
    </busStop>
    <busStop id="-23696275#16:0.00" lane="-23696275#16_1" startPos="0.00" endPos="13.00" friendlyPos="true" name="Bad Hersfeld Michael-Schnabrich-Straße">
    </busStop>
    <busStop id="27273765#1:186.07" lane="27273765#1_1" startPos="173.07" endPos="199.07" friendlyPos="true" name="Bad Hersfeld Finkenweg 3">
    </busStop>
    <busStop id="27273765#1:552.00" lane="27273765#1_1" startPos="539.00" endPos="565.00" friendlyPos="true" name="Bad Hersfeld Finkenweg 2">
    </busStop>
    <busStop id="27273765#3:81.21" lane="27273765#3_1" startPos="68.21" endPos="94.21" friendlyPos="true" name="Bad Hersfeld Finkenweg 1">
    </busStop>
    <busStop id="34750129#1:109.10" lane="34750129#1_1" startPos="96.10" endPos="122.10" friendlyPos="true" name="Bad Hersfeld Heinrich-Heine-Straße">
    </busStop>
    <busStop id="-233150002#3:236.80" lane="-233150002#3_1" startPos="223.80" endPos="249.80" friendlyPos="true" name="Bad Hersfeld Reckeröder Straße">
    </busStop>
    <busStop id="23696275#20:25.51" lane="23696275#20_1" startPos="12.51" endPos="38.51" friendlyPos="true" name="Bad Hersfeld Michael-Schnabrich-Straße">
    </busStop>
    <busStop id="159950717#0:43.08" lane="159950717#0_1" startPos="30.08" endPos="56.08" friendlyPos="true" name="Bad Hersfeld Sternerstraße">
    </busStop>
    <busStop id="28534932#2:66.43" lane="28534932#2_1" startPos="53.43" endPos="79.43" friendlyPos="true" name="Bad Hersfeld Stresemannallee 1">
    </busStop>
    <busStop id="E20:0.18" lane="E20_1" startPos="0.00" endPos="13.18" friendlyPos="true" name="Bad Hersfeld Stresemannallee 2">
    </busStop>
    <busStop id="-212112831#3:89.83" lane="-212112831#3_1" startPos="76.83" endPos="102.83" friendlyPos="true" name="Bad Hersfeld Lappenlied">
    </busStop>
    <busStop id="-172189511#2:130.16" lane="-172189511#2_1" startPos="117.16" endPos="143.16" friendlyPos="true" name="Bad Hersfeld Lappenlied/Friedhof">
    </busStop>
    <busStop id="-653049134#0:4.68" lane="-653049134#0_1" startPos="0.00" endPos="17.68" friendlyPos="true" name="Bad Hersfeld Eisenbergstraße">
    </busStop>
    <busStop id="-159950182#1:0.00" lane="-159950182#1_1" startPos="0.00" endPos="13.00" friendlyPos="true" name="Bad Hersfeld Schwingstock">
    </busStop>
    <busStop id="-233150002#4:125.03" lane="-233150002#4_1" startPos="112.03" endPos="138.03" friendlyPos="true" name="Bad Hersfeld Meisebacher Straße">
    </busStop>
    <busStop id="23696275#17:24.19" lane="23696275#17_1" startPos="11.19" endPos="37.19" friendlyPos="true" name="Bad Hersfeld Eisteich">
    </busStop>
    <busStop id="23979555#1:23.47" lane="23979555#1_1" startPos="10.47" endPos="36.47" friendlyPos="true" name="Bad Hersfeld Breitenstraße">
    </busStop>
    <busStop id="233791128:18.05" lane="233791128_1" startPos="5.05" endPos="31.05" friendlyPos="true" name="Bad Hersfeld Bahnhof">
    </busStop>
    <busStop id="124416776#0:0.00" lane="124416776#0_1" startPos="0.00" endPos="13.00" friendlyPos="true" name="Bad Hersfeld Bahnhof">
    </busStop>
    <busStop id="104494836#3:42.18" lane="104494836#3_1" startPos="29.18" endPos="55.18" friendlyPos="true" name="Bad Hersfeld Europakreisel">
    </busStop>
    <busStop id="-179631747:186.53" lane="-179631747_1" startPos="173.53" endPos="199.53" friendlyPos="true" name="Bad Hersfeld Am Fuldasee">
    </busStop>
    <busStop id="179631755#0:181.15" lane="179631755#0_1" startPos="168.15" endPos="194.15" friendlyPos="true" name="Bad Hersfeld Straßenmeisterei">
    </busStop>
    <busStop id="-28321719#7:0.00" lane="-28321719#7_1" startPos="0.00" endPos="13.00" friendlyPos="true" name="Bad Hersfeld Berberitzenweg">
    </busStop>
    <busStop id="-28321719#5:134.78" lane="-28321719#5_1" startPos="121.78" endPos="147.78" friendlyPos="true" name="Bad Hersfeld Hagebuttenweg">
    </busStop>
    <busStop id="-178503644#0:0.12" lane="-178503644#0_1" startPos="0.00" endPos="13.12" friendlyPos="true" name="Bad Hersfeld Ligusterweg">
    </busStop>
    <busStop id="-306417542#1:13.07" lane="-306417542#1_1" startPos="0.07" endPos="26.07" friendlyPos="true" name="Bad Hersfeld Schwarzdornweg">
    </busStop>
    <busStop id="-28190428#5:8.61" lane="-28190428#5_1" startPos="0.00" endPos="21.61" friendlyPos="true" name="Bad Hersfeld Douglasienweg">
    </busStop>
    <busStop id="-34160113#15:0.00" lane="-34160113#15_1" startPos="0.00" endPos="13.00" friendlyPos="true" name="Bad Hersfeld Birkenweg">
    </busStop>
    <busStop id="-34160113#14:53.24" lane="-34160113#14_1" startPos="40.24" endPos="66.24" friendlyPos="true" name="Bad Hersfeld Johannesberg-Mitte">
    </busStop>
    <busStop id="-34160113#6:52.02" lane="-34160113#6_1" startPos="39.02" endPos="65.02" friendlyPos="true" name="Bad Hersfeld Holunderweg">
    </busStop>
    <busStop id="37334669#2:40.21" lane="37334669#2_1" startPos="27.21" endPos="53.21" friendlyPos="true" name="Bad Hersfeld Ulmenweg">
    </busStop>
    <busStop id="105592740#7:45.31" lane="105592740#7_1" startPos="32.31" endPos="58.31" friendlyPos="true" name="Bad Hersfeld Lindenweg">
    </busStop>
    <busStop id="306418874#2:28.92" lane="306418874#2_1" startPos="15.92" endPos="41.92" friendlyPos="true" name="Bad Hersfeld Zypressenweg">
    </busStop>
    <busStop id="34160113#0:28.60" lane="34160113#0_1" startPos="15.60" endPos="41.60" friendlyPos="true" name="Bad Hersfeld Am Flugplatz">
    </busStop>
    <busStop id="34160113#3:52.39" lane="34160113#3_1" startPos="39.39" endPos="65.39" friendlyPos="true" name="Bad Hersfeld Schlehenweg">
    </busStop>
    <busStop id="37334669#3:0.00" lane="37334669#3_1" startPos="0.00" endPos="13.00" friendlyPos="true" name="Bad Hersfeld Ulmenweg">
    </busStop>
    <busStop id="34160113#6:0.00" lane="34160113#6_1" startPos="0.00" endPos="13.00" friendlyPos="true" name="Bad Hersfeld Holunderweg">
    </busStop>
    <busStop id="34160113#14:10.88" lane="34160113#14_1" startPos="0.00" endPos="23.88" friendlyPos="true" name="Bad Hersfeld Johannesberg-Mitte">
    </busStop>
    <busStop id="28190428#5:20.70" lane="28190428#5_1" startPos="7.70" endPos="33.70" friendlyPos="true" name="Bad Hersfeld Douglasienweg">
    </busStop>
    <busStop id="306417542#1:108.71" lane="306417542#1_1" startPos="95.71" endPos="121.71" friendlyPos="true" name="Bad Hersfeld Schwarzdornweg">
    </busStop>
    <busStop id="178503644#0:195.02" lane="178503644#0_1" startPos="182.02" endPos="208.02" friendlyPos="true" name="Bad Hersfeld Ligusterweg">
    </busStop>
    <busStop id="28321719#5:0.00" lane="28321719#5_1" startPos="0.00" endPos="13.00" friendlyPos="true" name="Bad Hersfeld Hagebuttenweg">
    </busStop>
    <busStop id="28321719#7:47.70" lane="28321719#7_1" startPos="34.70" endPos="60.70" friendlyPos="true" name="Bad Hersfeld Berberitzenweg">
    </busStop>
    <busStop id="34160316:72.75" lane="34160316_1" startPos="59.75" endPos="85.75" friendlyPos="true" name="Bad Hersfeld Straßenmeisterei">
    </busStop>
    <busStop id="26175084#0:1.01" lane="26175084#0_1" startPos="0.00" endPos="14.01" friendlyPos="true" name="Bad Hersfeld Europakreisel">
    </busStop>
    <busStop id="104668977#0:0.00" lane="104668977#0_1" startPos="0.00" endPos="13.00" friendlyPos="true" name="Bad Hersfeld Bahnhof">
    </busStop>
    <busStop id="971255571:19.74" lane="971255571_1" startPos="6.74" endPos="32.74" friendlyPos="true" name="Bad Hersfeld Breitenstraße">
    </busStop>
    <busStop id="-462191391#1:24.08" lane="-462191391#1_1" startPos="11.08" endPos="37.08" friendlyPos="true" name="Bad Hersfeld Untere Kühnbach">
    </busStop>
    <busStop id="26013140#0:359.31" lane="26013140#0_1" startPos="346.31" endPos="372.31" friendlyPos="true" name="Bad Hersfeld-Petersberg Wohnstift">
    </busStop>
    <busStop id="200313022#16:146.06" lane="200313022#16_1" startPos="133.06" endPos="159.06" friendlyPos="true" name="Bad Hersfeld Grenzebachstraße">
    </busStop>
    <busStop id="26013136#1:111.51" lane="26013136#1_1" startPos="98.51" endPos="124.51" friendlyPos="true" name="Bad Hersfeld-Petersberg Wohnstift">
    </busStop>
    <busStop id="248645893:27.48" lane="248645893_1" startPos="14.48" endPos="40.48" friendlyPos="true" name="Bad Hersfeld Hünfelder Straße">
    </busStop>
    <busStop id="85328218#5:39.31" lane="85328218#5_1" startPos="26.31" endPos="52.31" friendlyPos="true" name="Bad Hersfeld Jenaer Straße">
    </busStop>
    <busStop id="25796743#7:30.16" lane="25796743#7_1" startPos="17.16" endPos="43.16" friendlyPos="true" name="Bad Hersfeld Eisenacher Straße">
    </busStop>
    <busStop id="248645892:191.32" lane="248645892_1" startPos="178.32" endPos="204.32" friendlyPos="true" name="Bad Hersfeld Gewerbepark/Kaserne">
    </busStop>
    <busStop id="233824703#1:39.05" lane="233824703#1_1" startPos="26.05" endPos="52.05" friendlyPos="true" name="Bad Hersfeld Walkerweg">
    </busStop>
    <busStop id="321426015:13.20" lane="321426015_1" startPos="0.20" endPos="26.20" friendlyPos="true" name="Bad Hersfeld Abzweig Aqua Fit">
    </busStop>
    <busStop id="-200313022#3:140.42" lane="-200313022#3_1" startPos="127.42" endPos="153.42" friendlyPos="true" name="Bad Hersfeld Wippershainer Straße">
    </busStop>
    <busStop id="200313022#8:101.89" lane="200313022#8_1" startPos="88.89" endPos="114.89" friendlyPos="true" name="Bad Hersfeld Rauherweg">
    </busStop>
    <busStop id="151592248#8:20.43" lane="151592248#8_1" startPos="7.43" endPos="33.43" friendlyPos="true" name="Bad Hersfeld Grenzebachstraße">
    </busStop>
    <busStop id="151590005#3:32.50" lane="151590005#3_1" startPos="19.50" endPos="45.50" friendlyPos="true" name="Bad Hersfeld Dreherstraße">
    </busStop>
    <busStop id="159818666#5:38.20" lane="159818666#5_1" startPos="25.20" endPos="51.20" friendlyPos="true" name="Bad Hersfeld Stettiner Straße">
    </busStop>
    <busStop id="159818666#10:98.28" lane="159818666#10_1" startPos="85.28" endPos="111.28" friendlyPos="true" name="Bad Hersfeld-Petersberg Brandenburger Straße">
    </busStop>
    <busStop id="-85445867:162.61" lane="-85445867_1" startPos="149.61" endPos="175.61" friendlyPos="true" name="Bad Hersfeld Königsberger Straße">
    </busStop>
    <busStop id="151585860#1:80.87" lane="151585860#1_1" startPos="67.87" endPos="93.87" friendlyPos="true" name="Bad Hersfeld Spessartstraße">
    </busStop>
    <busStop id="-85445844#3:89.70" lane="-85445844#3_1" startPos="76.70" endPos="102.70" friendlyPos="true" name="Bad Hersfeld-Petersberg Am Windrad">
    </busStop>
    <busStop id="-26205480#1:41.91" lane="-26205480#1_1" startPos="28.91" endPos="54.91" friendlyPos="true" name="Bad Hersfeld Am Petersberg">
    </busStop>
    <busStop id="175070740#1:34.98" lane="175070740#1_1" startPos="21.98" endPos="47.98" friendlyPos="true" name="Bad Hersfeld-Kathus Pfarrwiesen">
    </busStop>
    <busStop id="-318085257#1:101.43" lane="-318085257#1_1" startPos="88.43" endPos="114.43" friendlyPos="true" name="Bad Hersfeld-Kathus Solztalstraße">
    </busStop>
    <busStop id="-60253085#0:106.29" lane="-60253085#0_1" startPos="93.29" endPos="119.29" friendlyPos="true" name="Bad Hersfeld-Kathus Sägewerk">
    </busStop>
    <busStop id="27033036:61.31" lane="27033036_1" startPos="48.31" endPos="74.31" friendlyPos="true" name="Bad Hersfeld-Kathus Siedlerstraße">
    </busStop>
    <busStop id="60253088#2:0.00" lane="60253088#2_1" startPos="0.00" endPos="13.00" friendlyPos="true" name="Bad Hersfeld-Kathus Kirche">
    </busStop>
    <busStop id="60253078#1:46.64" lane="60253078#1_1" startPos="33.64" endPos="59.64" friendlyPos="true" name="Bad Hersfeld-Kathus Dorngartenstraße">
    </busStop>
    <busStop id="-67332189#5:210.06" lane="-67332189#5_1" startPos="197.06" endPos="223.06" friendlyPos="true" name="Bad Hersfeld-Sorga Forsthaus">
    </busStop>
    <busStop id="321421862#1:79.46" lane="321421862#1_1" startPos="66.46" endPos="92.46" friendlyPos="true" name="Bad Hersfeld-Sorga Am Brunnen">
    </busStop>
    <busStop id="321421862#2:30.41" lane="321421862#2_1" startPos="17.41" endPos="43.41" friendlyPos="true" name="Bad Hersfeld-Sorga Bahnhof">
    </busStop>
    <busStop id="318085257#1:27.30" lane="318085257#1_1" startPos="14.30" endPos="40.30" friendlyPos="true" name="Bad Hersfeld-Kathus Solztalstraße">
    </busStop>
    <busStop id="318085257#4:11.16" lane="318085257#4_1" startPos="0.00" endPos="24.16" friendlyPos="true" name="Bad Hersfeld-Kathus Sägewerk">
    </busStop>
    <busStop id="60253093#0:14.33" lane="60253093#0_1" startPos="1.33" endPos="27.33" friendlyPos="true" name="Bad Hersfeld-Kathus Linde">
    </busStop>
    <busStop id="-370552767#0:39.54" lane="-370552767#0_1" startPos="26.54" endPos="52.54" friendlyPos="true" name="Bad Hersfeld-Kathus Siedlerstraße">
    </busStop>
    <busStop id="151592248#10:0.00" lane="151592248#10_1" startPos="0.00" endPos="13.00" friendlyPos="true" name="Bad Hersfeld Grenzebachstraße">
    </busStop>
    <busStop id="679568117:14.96" lane="679568117_1" startPos="1.96" endPos="27.96" friendlyPos="true" name="Bad Hersfeld Untere Kühnbach">
    </busStop>
    <busStop id="240561454:0.00" lane="240561454_1" startPos="0.00" endPos="13.00" friendlyPos="true" name="Bad Hersfeld Breitenstraße">
    </busStop>
    <busStop id="-104668977#0:11.51" lane="-104668977#0_1" startPos="0.00" endPos="24.51" friendlyPos="true" name="Bad Hersfeld Bahnhof">
    </busStop>
    <busStop id="-26013136#1:76.63" lane="-26013136#1_1" startPos="63.63" endPos="89.63" friendlyPos="true" name="Bad Hersfeld-Petersberg Wohnstift">
    </busStop>
    <busStop id="60253083:0.00" lane="60253083_1" startPos="0.00" endPos="13.00" friendlyPos="true" name="Bad Hersfeld-Kathus Linde">
    </busStop>
    <busStop id="-318085257#4:34.90" lane="-318085257#4_1" startPos="21.90" endPos="47.90" friendlyPos="true" name="Bad Hersfeld-Kathus Sägewerk">
    </busStop>
    <busStop id="-318085257#3:0.00" lane="-318085257#3_1" startPos="0.00" endPos="13.00" friendlyPos="true" name="Bad Hersfeld-Kathus Siedlerstraße">
    </busStop>
    <busStop id="-318085257#2:0.00" lane="-318085257#2_1" startPos="0.00" endPos="13.00" friendlyPos="true" name="Bad Hersfeld-Kathus Kirche">
    </busStop>
    <busStop id="-175070740#1:3.16" lane="-175070740#1_1" startPos="0.00" endPos="16.16" friendlyPos="true" name="Bad Hersfeld-Kathus Pfarrwiesen">
    </busStop>
    <busStop id="26205480#1:31.15" lane="26205480#1_1" startPos="18.15" endPos="44.15" friendlyPos="true" name="Bad Hersfeld Am Petersberg">
    </busStop>
    <busStop id="85445844#3:43.94" lane="85445844#3_1" startPos="30.94" endPos="56.94" friendlyPos="true" name="Bad Hersfeld-Petersberg Am Windrad">
    </busStop>
    <busStop id="-151585860#1:3.25" lane="-151585860#1_1" startPos="0.00" endPos="16.25" friendlyPos="true" name="Bad Hersfeld Spessartstraße">
    </busStop>
    <busStop id="85445867:0.00" lane="85445867_1" startPos="0.00" endPos="13.00" friendlyPos="true" name="Bad Hersfeld Königsberger Straße">
    </busStop>
    <busStop id="-159818666#10:0.06" lane="-159818666#10_1" startPos="0.00" endPos="13.06" friendlyPos="true" name="Bad Hersfeld-Petersberg Brandenburger Straße">
    </busStop>
    <busStop id="-159818666#5:43.67" lane="-159818666#5_1" startPos="30.67" endPos="56.67" friendlyPos="true" name="Bad Hersfeld Stettiner Straße">
    </busStop>
    <busStop id="-151590005#3:65.88" lane="-151590005#3_1" startPos="52.88" endPos="78.88" friendlyPos="true" name="Bad Hersfeld Dreherstraße">
    </busStop>
    <busStop id="-233824703#1:0.00" lane="-233824703#1_1" startPos="0.00" endPos="13.00" friendlyPos="true" name="Bad Hersfeld Walkerweg">
    </busStop>
    <busStop id="-248645892:17.61" lane="-248645892_1" startPos="4.61" endPos="30.61" friendlyPos="true" name="Bad Hersfeld Gewerbepark/Kaserne">
    </busStop>
    <busStop id="-248645893:55.49" lane="-248645893_1" startPos="42.49" endPos="68.49" friendlyPos="true" name="Bad Hersfeld Hünfelder Straße">
    </busStop>
    <busStop id="184446312:43.38" lane="184446312_1" startPos="30.38" endPos="56.38" friendlyPos="true" name="Bad Hersfeld Amazonstraße">
    </busStop>
    <busStop id="-60253084#2:0.00" lane="-60253084#2_1" startPos="0.00" endPos="13.00" friendlyPos="true" name="Bad Hersfeld-Kathus Solztalstraße">
    </busStop>
    <busStop id="-321421862#2:50.69" lane="-321421862#2_1" startPos="37.69" endPos="63.69" friendlyPos="true" name="Bad Hersfeld-Sorga Bahnhof">
    </busStop>
    <busStop id="25946391:59.19" lane="25946391_1" startPos="46.19" endPos="72.19" friendlyPos="true" name="Bad Hersfeld Breitenstraße">
    </busStop>
    <busStop id="160011978#1:6.65" lane="160011978#1_1" startPos="0.00" endPos="19.65" friendlyPos="true" name="Bad Hersfeld Hof Wehneberg">
    </busStop>
    <busStop id="41050375#7:526.76" lane="41050375#7_1" startPos="513.76" endPos="539.76" friendlyPos="true" name="Bad Hersfeld Sondershauser Straße">
    </busStop>
    <busStop id="30610463#0:5.30" lane="30610463#0_1" startPos="0.00" endPos="18.30" friendlyPos="true" name="Bad Hersfeld Tulpenweg">
    </busStop>
    <busStop id="30610463#3:20.23" lane="30610463#3_1" startPos="7.23" endPos="33.23" friendlyPos="true" name="Bad Hersfeld Am Wendeberg">
    </busStop>
    <busStop id="30610461#9:23.02" lane="30610461#9_1" startPos="10.02" endPos="36.02" friendlyPos="true" name="Bad Hersfeld Seniorendomizil">
    </busStop>
    <busStop id="-30610463#7:99.82" lane="-30610463#7_1" startPos="86.82" endPos="112.82" friendlyPos="true" name="Bad Hersfeld Gotzbertstraße 1">
    </busStop>
    <busStop id="-30610463#3:125.38" lane="-30610463#3_1" startPos="112.38" endPos="138.38" friendlyPos="true" name="Bad Hersfeld Gotzbertstraße 2">
    </busStop>
    <busStop id="30610461#0:16.17" lane="30610461#0_1" startPos="3.17" endPos="29.17" friendlyPos="true" name="Bad Hersfeld Gotzbertstraße 3">
    </busStop>
    <busStop id="157539099#2:44.14" lane="157539099#2_1" startPos="31.14" endPos="57.14" friendlyPos="true" name="Bad Hersfeld Klinikum">
    </busStop>
    <busStop id="-160011978#2:38.15" lane="-160011978#2_1" startPos="25.15" endPos="51.15" friendlyPos="true" name="Bad Hersfeld Hof Wehneberg">
    </busStop>
    <busStop id="30610462#0:18.51" lane="30610462#0_1" startPos="5.51" endPos="31.51" friendlyPos="true" name="Bad Hersfeld Conrad-Mel-Straße">
    </busStop>
    <busStop id="30610462#3:40.35" lane="30610462#3_1" startPos="27.35" endPos="53.35" friendlyPos="true" name="Bad Hersfeld Gustav-Freytag-Straße">
    </busStop>
    <busStop id="-30610460#1:24.91" lane="-30610460#1_1" startPos="11.91" endPos="37.91" friendlyPos="true" name="Bad Hersfeld Goethestraße">
    </busStop>
    <busStop id="184630310:12.25" lane="184630310_1" startPos="0.00" endPos="25.25" friendlyPos="true" name="Bad Hersfeld Wehneberger Straße 1">
    </busStop>
    <busStop id="23554734#2:67.67" lane="23554734#2_1" startPos="54.67" endPos="80.67" friendlyPos="true" name="Bad Hersfeld Güldene Kammer">
    </busStop>
    <busStop id="23554734#2:103.38" lane="23554734#2_1" startPos="90.38" endPos="116.38" friendlyPos="true" name="Bad Hersfeld Freibad">
    </busStop>
    <busStop id="23554734#4:14.83" lane="23554734#4_1" startPos="1.83" endPos="27.83" friendlyPos="true" name="Bad Hersfeld Jägersgraben">
    </busStop>
    <busStop id="23554734#6:142.95" lane="23554734#6_1" startPos="129.95" endPos="155.95" friendlyPos="true" name="Bad Hersfeld Lohmühlenweg">
    </busStop>
    <busStop id="157535178#1:76.50" lane="157535178#1_1" startPos="63.50" endPos="89.50" friendlyPos="true" name="Bad Hersfeld-Kalkobes Ortsmitte">
    </busStop>
    <busStop id="845855186#6:112.10" lane="845855186#6_1" startPos="99.10" endPos="125.10" friendlyPos="true" name="Bad Hersfeld Kalkobes Sportplatz">
    </busStop>
    <busStop id="-34750079#1:456.89" lane="-34750079#1_1" startPos="443.89" endPos="469.89" friendlyPos="true" name="Bad Hersfeld-Heenes Hersfelder Straße">
    </busStop>
    <busStop id="127529207#5:0.00" lane="127529207#5_1" startPos="0.00" endPos="13.00" friendlyPos="true" name="Bad Hersfeld Abzweig Glimmesmühle">
    </busStop>
    <busStop id="-291223659#3:50.34" lane="-291223659#3_1" startPos="37.34" endPos="63.34" friendlyPos="true" name="Bad Hersfeld-Allmershausen">
    </busStop>
    <busStop id="291223659#3:0.00" lane="291223659#3_1" startPos="0.00" endPos="13.00" friendlyPos="true" name="Bad Hersfeld-Allmershausen">
    </busStop>
    <busStop id="-127529207#4:0.00" lane="-127529207#4_1" startPos="0.00" endPos="13.00" friendlyPos="true" name="Bad Hersfeld Abzweig Glimmesmühle">
    </busStop>
    <busStop id="-34750079#2:56.52" lane="-34750079#2_1" startPos="43.52" endPos="69.52" friendlyPos="true" name="Bad Hersfeld-Heenes Ernst-Reuter-Straße">
    </busStop>
    <busStop id="-34750079#2:199.95" lane="-34750079#2_1" startPos="186.95" endPos="212.95" friendlyPos="true" name="Bad Hersfeld-Heenes Kindergarten">
    </busStop>
    <busStop id="-34750079#1:116.00" lane="-34750079#1_1" startPos="103.00" endPos="129.00" friendlyPos="true" name="Bad Hersfeld Heenes Hersfelder Straße Mitte">
    </busStop>
    <busStop id="-845855186#6:26.97" lane="-845855186#6_1" startPos="13.97" endPos="39.97" friendlyPos="true" name="Bad Hersfeld Kalkobes Sportplatz">
    </busStop>
    <busStop id="-845855186#2:68.86" lane="-845855186#2_1" startPos="55.86" endPos="81.86" friendlyPos="true" name="Bad Hersfeld-Kalkobes Ortsmitte">
    </busStop>
    <busStop id="-23554734#7:0.00" lane="-23554734#7_1" startPos="0.00" endPos="13.00" friendlyPos="true" name="Bad Hersfeld Lohmühlenweg">
    </busStop>
    <busStop id="-23554734#4:12.41" lane="-23554734#4_1" startPos="0.00" endPos="25.41" friendlyPos="true" name="Bad Hersfeld Jägersgraben">
    </busStop>
    <busStop id="41890716#4:16.38" lane="41890716#4_1" startPos="3.38" endPos="29.38" friendlyPos="true" name="Bad Hersfeld Güldene Kammer">
    </busStop>
    <busStop id="-274995667#1:30.06" lane="-274995667#1_1" startPos="17.06" endPos="43.06" friendlyPos="true" name="Bad Hersfeld Heinrich-Gutberlet-Straße">
    </busStop>