<?xml version="1.0" encoding="UTF-8"?>
<!-- generated on 2022-02-02 11:23:37.510914 by gtfs2pt.py UNKNOWN
  options: -n osm.net.xml <doubleminus>gtfs gtfs.zip <doubleminus>date 20210408 <doubleminus>vtype-output pt_vtypes.xml
-->
<routes xmlns:xsi="http://www.w3.org/2001/XMLSchema-instance" xsi:noNamespaceSchemaLocation="http://sumo.dlr.de/xsd/routes_file.xsd">
    <vehicle id="10009264.0" route="10009264" type="bus" depart="50390" line="300_10009264"/>
    <vehicle id="10009265.0" route="10009264" type="bus" depart="46790" line="300_10009264"/>
    <vehicle id="10009266.0" route="10009264" type="bus" depart="43190" line="300_10009264"/>
    <vehicle id="10009267.0" route="10009264" type="bus" depart="39590" line="300_10009264"/>
    <vehicle id="10009268.0" route="10009264" type="bus" depart="35990" line="300_10009264"/>
    <vehicle id="10009269.0" route="10009264" type="bus" depart="32390" line="300_10009264"/>
    <vehicle id="10009270.0" route="10009264" type="bus" depart="75590" line="300_10009264"/>
    <vehicle id="10009271.0" route="10009264" type="bus" depart="68390" line="300_10009264"/>
    <vehicle id="10009272.0" route="10009264" type="bus" depart="28790" line="300_10009264"/>
    <vehicle id="10009273.0" route="10009264" type="bus" depart="61190" line="300_10009264"/>
    <vehicle id="10009274.0" route="10009264" type="bus" depart="53990" line="300_10009264"/>
    <vehicle id="10009283.0" route="10009264" type="bus" depart="25190" line="300_10009264"/>
    <vehicle id="10009288.0" route="10009264" type="bus" depart="71990" line="300_10009264"/>
    <vehicle id="10009290.0" route="10009264" type="bus" depart="64790" line="300_10009264"/>
    <vehicle id="10009292.0" route="10009264" type="bus" depart="57590" line="300_10009264"/>
    <vehicle id="10009294.0" route="10009264" type="bus" depart="21590" line="300_10009264"/>
    <vehicle id="10009296.0" route="10009296" type="bus" depart="49250" line="300_10009296"/>
    <vehicle id="10009297.0" route="10009296" type="bus" depart="45650" line="300_10009296"/>
    <vehicle id="10009298.0" route="10009296" type="bus" depart="42050" line="300_10009296"/>
    <vehicle id="10009299.0" route="10009296" type="bus" depart="38450" line="300_10009296"/>
    <vehicle id="10009300.0" route="10009296" type="bus" depart="34850" line="300_10009296"/>
    <vehicle id="10009301.0" route="10009296" type="bus" depart="31250" line="300_10009296"/>
    <vehicle id="10009302.0" route="10009296" type="bus" depart="74450" line="300_10009296"/>
    <vehicle id="10009303.0" route="10009296" type="bus" depart="67250" line="300_10009296"/>
    <vehicle id="10009304.0" route="10009296" type="bus" depart="60050" line="300_10009296"/>
    <vehicle id="10009305.0" route="10009296" type="bus" depart="27650" line="300_10009296"/>
    <vehicle id="10009306.0" route="10009296" type="bus" depart="52850" line="300_10009296"/>
    <vehicle id="10009316.0" route="10009296" type="bus" depart="24050" line="300_10009296"/>
    <vehicle id="10009320.0" route="10009296" type="bus" depart="70850" line="300_10009296"/>
    <vehicle id="10009322.0" route="10009296" type="bus" depart="63650" line="300_10009296"/>
    <vehicle id="10009324.0" route="10009296" type="bus" depart="56450" line="300_10009296"/>
    <vehicle id="10009326.0" route="10009296" type="bus" depart="20450" line="300_10009296"/>
    <vehicle id="10102058.0" route="10102058" type="bus" depart="34490" line="470_10102058"/>
    <vehicle id="10102059.0" route="10102058" type="bus" depart="81290" line="470_10102058"/>
    <vehicle id="10102060.0" route="10102058" type="bus" depart="77690" line="470_10102058"/>
    <vehicle id="10102061.0" route="10102058" type="bus" depart="74090" line="470_10102058"/>
    <vehicle id="10102062.0" route="10102058" type="bus" depart="70490" line="470_10102058"/>
    <vehicle id="10102063.0" route="10102058" type="bus" depart="66890" line="470_10102058"/>
    <vehicle id="10102064.0" route="10102058" type="bus" depart="63290" line="470_10102058"/>
    <vehicle id="10102065.0" route="10102058" type="bus" depart="59690" line="470_10102058"/>
    <vehicle id="10102066.0" route="10102058" type="bus" depart="56090" line="470_10102058"/>
    <vehicle id="10102067.0" route="10102058" type="bus" depart="52490" line="470_10102058"/>
    <vehicle id="10102068.0" route="10102058" type="bus" depart="48890" line="470_10102058"/>
    <vehicle id="10102069.0" route="10102058" type="bus" depart="30890" line="470_10102058"/>
    <vehicle id="10102070.0" route="10102058" type="bus" depart="45290" line="470_10102058"/>
    <vehicle id="10102071.0" route="10102058" type="bus" depart="41690" line="470_10102058"/>
    <vehicle id="10102072.0" route="10102058" type="bus" depart="38090" line="470_10102058"/>
    <vehicle id="10102084.0" route="10102058" type="bus" depart="27290" line="470_10102058"/>
    <vehicle id="10102089.0" route="10102058" type="bus" depart="23690" line="470_10102058"/>
    <vehicle id="10102102.0" route="10102102" type="bus" depart="22610" line="470_10102102"/>
    <vehicle id="10102103.0" route="10102102" type="bus" depart="76610" line="470_10102102"/>
    <vehicle id="10102104.0" route="10102102" type="bus" depart="73010" line="470_10102102"/>
    <vehicle id="10102105.0" route="10102102" type="bus" depart="69410" line="470_10102102"/>
    <vehicle id="10102106.0" route="10102102" type="bus" depart="65810" line="470_10102102"/>
    <vehicle id="10102107.0" route="10102102" type="bus" depart="62210" line="470_10102102"/>
    <vehicle id="10102108.0" route="10102102" type="bus" depart="58610" line="470_10102102"/>
    <vehicle id="10102109.0" route="10102102" type="bus" depart="55010" line="470_10102102"/>
    <vehicle id="10102110.0" route="10102102" type="bus" depart="51410" line="470_10102102"/>
    <vehicle id="10102111.0" route="10102102" type="bus" depart="47810" line="470_10102102"/>
    <vehicle id="10102112.0" route="10102102" type="bus" depart="44210" line="470_10102102"/>
    <vehicle id="10102113.0" route="10102102" type="bus" depart="40610" line="470_10102102"/>
    <vehicle id="10102114.0" route="10102102" type="bus" depart="37010" line="470_10102102"/>
    <vehicle id="10102115.0" route="10102102" type="bus" depart="33410" line="470_10102102"/>
    <vehicle id="10102116.0" route="10102102" type="bus" depart="29810" line="470_10102102"/>
    <vehicle id="10102117.0" route="10102102" type="bus" depart="26210" line="470_10102102"/>
    <vehicle id="10102128.0" route="10102102" type="bus" depart="19010" line="470_10102102"/>
    <vehicle id="10009901.0" route="10009901" type="bus" depart="84590" line="329_10009901"/>
    <vehicle id="10009902.0" route="10009901" type="bus" depart="77390" line="329_10009901"/>
    <vehicle id="10009903.0" route="10009901" type="bus" depart="70190" line="329_10009901"/>
    <vehicle id="10009917.0" route="10009917" type="bus" depart="62990" line="329_10009917"/>
    <vehicle id="10009918.0" route="10009917" type="bus" depart="55790" line="329_10009917"/>
    <vehicle id="10009919.0" route="10009917" type="bus" depart="48590" line="329_10009917"/>
    <vehicle id="10009920.0" route="10009917" type="bus" depart="41390" line="329_10009917"/>
    <vehicle id="10009921.0" route="10009917" type="bus" depart="34190" line="329_10009917"/>
    <vehicle id="10009925.0" route="10009917" type="bus" depart="26990" line="329_10009917"/>
    <vehicle id="10009926.0" route="10009926" type="bus" depart="80690" line="329_10009926"/>
    <vehicle id="10009927.0" route="10009926" type="bus" depart="73490" line="329_10009926"/>
    <vehicle id="10009940.0" route="10009940" type="bus" depart="66290" line="329_10009940"/>
    <vehicle id="10009941.0" route="10009940" type="bus" depart="59090" line="329_10009940"/>
    <vehicle id="10009942.0" route="10009940" type="bus" depart="51890" line="329_10009940"/>
    <vehicle id="10009943.0" route="10009940" type="bus" depart="44690" line="329_10009940"/>
    <vehicle id="10009944.0" route="10009940" type="bus" depart="37490" line="329_10009940"/>
    <vehicle id="10009945.0" route="10009940" type="bus" depart="30290" line="329_10009940"/>
    <vehicle id="10009949.0" route="10009940" type="bus" depart="23090" line="329_10009940"/>
    <vehicle id="10010361.0" route="10010361" type="bus" depart="53990" line="359.1_10010361"/>
    <vehicle id="10010362.0" route="10010361" type="bus" depart="50390" line="359.1_10010361"/>
    <vehicle id="10010363.0" route="10010361" type="bus" depart="46790" line="359.1_10010361"/>
    <vehicle id="10010364.0" route="10010361" type="bus" depart="43190" line="359.1_10010361"/>
    <vehicle id="10010367.0" route="10010361" type="bus" depart="39590" line="359.1_10010361"/>
    <vehicle id="10010371.0" route="10010361" type="bus" depart="35990" line="359.1_10010361"/>
    <vehicle id="10010374.0" route="10010361" type="bus" depart="32390" line="359.1_10010361"/>
    <vehicle id="10010382.0" route="10010361" type="bus" depart="28790" line="359.1_10010361"/>
    <vehicle id="10010383.0" route="10010361" type="bus" depart="25190" line="359.1_10010361"/>
    <vehicle id="10010385.0" route="10010361" type="bus" depart="64790" line="359.1_10010361"/>
    <vehicle id="10010386.0" route="10010361" type="bus" depart="61190" line="359.1_10010361"/>
    <vehicle id="10010387.0" route="10010361" type="bus" depart="57590" line="359.1_10010361"/>
    <vehicle id="10010390.0" route="10010389" type="bus" depart="84590" line="359.1_10010389"/>
    <vehicle id="10010391.0" route="10010389" type="bus" depart="80990" line="359.1_10010389"/>
    <vehicle id="10010392.0" route="10010389" type="bus" depart="77390" line="359.1_10010389"/>
    <vehicle id="10010393.0" route="10010389" type="bus" depart="73790" line="359.1_10010389"/>
    <vehicle id="10010394.0" route="10010389" type="bus" depart="70190" line="359.1_10010389"/>
    <vehicle id="10010420.0" route="10010419" type="bus" depart="82970" line="359.1_10010419"/>
    <vehicle id="10010421.0" route="10010419" type="bus" depart="79370" line="359.1_10010419"/>
    <vehicle id="10010422.0" route="10010419" type="bus" depart="75770" line="359.1_10010419"/>
    <vehicle id="10010423.0" route="10010419" type="bus" depart="72170" line="359.1_10010419"/>
    <vehicle id="10010424.0" route="10010419" type="bus" depart="68570" line="359.1_10010419"/>
    <vehicle id="10010443.0" route="10010443" type="bus" depart="54770" line="359.1_10010443"/>
    <vehicle id="10010444.0" route="10010443" type="bus" depart="51170" line="359.1_10010443"/>
    <vehicle id="10010445.0" route="10010443" type="bus" depart="47570" line="359.1_10010443"/>
    <vehicle id="10010446.0" route="10010443" type="bus" depart="43970" line="359.1_10010443"/>
    <vehicle id="10010447.0" route="10010443" type="bus" depart="40370" line="359.1_10010443"/>
    <vehicle id="10010448.0" route="10010443" type="bus" depart="61970" line="359.1_10010443"/>
    <vehicle id="10010449.0" route="10010443" type="bus" depart="58370" line="359.1_10010443"/>
    <vehicle id="10010454.0" route="10010443" type="bus" depart="36770" line="359.1_10010443"/>
    <vehicle id="10010455.0" route="10010443" type="bus" depart="65570" line="359.1_10010443"/>
    <vehicle id="10010456.0" route="10010443" type="bus" depart="33170" line="359.1_10010443"/>
    <vehicle id="10010466.0" route="10010443" type="bus" depart="29570" line="359.1_10010443"/>
    <vehicle id="10010468.0" route="10010443" type="bus" depart="25970" line="359.1_10010443"/>
    <vehicle id="10010473.0" route="10010473" type="bus" depart="70190" line="359.2_10010473"/>
    <vehicle id="10010477.0" route="10010473" type="bus" depart="84590" line="359.2_10010473"/>
    <vehicle id="10010478.0" route="10010473" type="bus" depart="80990" line="359.2_10010473"/>
    <vehicle id="10010479.0" route="10010473" type="bus" depart="77390" line="359.2_10010473"/>
    <vehicle id="10010484.0" route="10010473" type="bus" depart="73790" line="359.2_10010473"/>
    <vehicle id="10010501.0" route="10010501" type="bus" depart="72590" line="359.2_10010501"/>
    <vehicle id="10010502.0" route="10010501" type="bus" depart="68990" line="359.2_10010501"/>
    <vehicle id="10010505.0" route="10010501" type="bus" depart="83390" line="359.2_10010501"/>
    <vehicle id="10010506.0" route="10010501" type="bus" depart="79790" line="359.2_10010501"/>
    <vehicle id="10010507.0" route="10010501" type="bus" depart="76190" line="359.2_10010501"/>
    <vehicle id="10010530.0" route="10010530" type="bus" depart="48590" line="359.3_10010530"/>
    <vehicle id="10010531.0" route="10010530" type="bus" depart="41390" line="359.3_10010530"/>
    <vehicle id="10010532.0" route="10010530" type="bus" depart="34190" line="359.3_10010530"/>
    <vehicle id="10010537.0" route="10010530" type="bus" depart="27590" line="359.3_10010530"/>
    <vehicle id="10010538.0" route="10010530" type="bus" depart="62990" line="359.3_10010530"/>
    <vehicle id="10010539.0" route="10010530" type="bus" depart="55790" line="359.3_10010530"/>
    <vehicle id="10010551.0" route="10010551" type="bus" depart="44990" line="359.3_10010551"/>
    <vehicle id="10010552.0" route="10010551" type="bus" depart="37790" line="359.3_10010551"/>
    <vehicle id="10010553.0" route="10010551" type="bus" depart="30590" line="359.3_10010551"/>
    <vehicle id="10010554.0" route="10010551" type="bus" depart="66590" line="359.3_10010551"/>
    <vehicle id="10010555.0" route="10010551" type="bus" depart="59390" line="359.3_10010551"/>
    <vehicle id="10010557.0" route="10010551" type="bus" depart="52190" line="359.3_10010551"/>
    <vehicle id="10010558.0" route="10010558" type="bus" depart="80990" line="359.3_10010558"/>
    <vehicle id="10010559.0" route="10010558" type="bus" depart="77390" line="359.3_10010558"/>
    <vehicle id="10010560.0" route="10010558" type="bus" depart="73790" line="359.3_10010558"/>
    <vehicle id="10010561.0" route="10010558" type="bus" depart="70190" line="359.3_10010558"/>
    <vehicle id="10010577.0" route="10010576" type="bus" depart="84590" line="359.3_10010576"/>
    <vehicle id="10010588.0" route="10010588" type="bus" depart="49490" line="359.3_10010588"/>
    <vehicle id="10010589.0" route="10010588" type="bus" depart="42290" line="359.3_10010588"/>
    <vehicle id="10010590.0" route="10010588" type="bus" depart="35090" line="359.3_10010588"/>
    <vehicle id="10010591.0" route="10010588" type="bus" depart="31490" line="359.3_10010588"/>
    <vehicle id="10010598.0" route="10010588" type="bus" depart="27890" line="359.3_10010588"/>
    <vehicle id="10010600.0" route="10010588" type="bus" depart="63890" line="359.3_10010588"/>
    <vehicle id="10010601.0" route="10010588" type="bus" depart="56690" line="359.3_10010588"/>
    <vehicle id="10010611.0" route="10010611" type="bus" depart="45890" line="359.3_10010611"/>
    <vehicle id="10010612.0" route="10010611" type="bus" depart="38690" line="359.3_10010611"/>
    <vehicle id="10010613.0" route="10010611" type="bus" depart="60290" line="359.3_10010611"/>
    <vehicle id="10010614.0" route="10010611" type="bus" depart="53090" line="359.3_10010611"/>
    <vehicle id="10010615.0" route="10010615" type="bus" depart="24290" line="359.3_10010615"/>
    <vehicle id="10010618.0" route="10010618" type="bus" depart="75770" line="359.3_10010618"/>
    <vehicle id="10010619.0" route="10010618" type="bus" depart="72170" line="359.3_10010618"/>
    <vehicle id="10010620.0" route="10010618" type="bus" depart="68570" line="359.3_10010618"/>
    <vehicle id="10010635.0" route="10010634" type="bus" depart="82970" line="359.3_10010634"/>
    <vehicle id="10010636.0" route="10010634" type="bus" depart="79370" line="359.3_10010634"/>
    <vehicle id="10010644.0" route="10010644" type="bus" depart="55790" line="359.4_10010644"/>
    <vehicle id="10010645.0" route="10010644" type="bus" depart="52190" line="359.4_10010644"/>
    <vehicle id="10010646.0" route="10010644" type="bus" depart="48590" line="359.4_10010644"/>
    <vehicle id="10010647.0" route="10010644" type="bus" depart="44990" line="359.4_10010644"/>
    <vehicle id="10010648.0" route="10010644" type="bus" depart="41390" line="359.4_10010644"/>
    <vehicle id="10010649.0" route="10010644" type="bus" depart="37790" line="359.4_10010644"/>
    <vehicle id="10010650.0" route="10010644" type="bus" depart="34190" line="359.4_10010644"/>
    <vehicle id="10010657.0" route="10010644" type="bus" depart="30590" line="359.4_10010644"/>
    <vehicle id="10010658.0" route="10010644" type="bus" depart="26990" line="359.4_10010644"/>
    <vehicle id="10010660.0" route="10010644" type="bus" depart="66590" line="359.4_10010644"/>
    <vehicle id="10010661.0" route="10010644" type="bus" depart="62990" line="359.4_10010644"/>
    <vehicle id="10010662.0" route="10010644" type="bus" depart="59390" line="359.4_10010644"/>
    <vehicle id="10010673.0" route="10010672" type="bus" depart="84590" line="359.4_10010672"/>
    <vehicle id="10010674.0" route="10010672" type="bus" depart="80990" line="359.4_10010672"/>
    <vehicle id="10010675.0" route="10010672" type="bus" depart="77390" line="359.4_10010672"/>
    <vehicle id="10010676.0" route="10010672" type="bus" depart="73790" line="359.4_10010672"/>
    <vehicle id="10010677.0" route="10010672" type="bus" depart="70190" line="359.4_10010672"/>
    <vehicle id="10010702.0" route="10010702" type="bus" depart="54830" line="359.4_10010702"/>
    <vehicle id="10010703.0" route="10010702" type="bus" depart="51230" line="359.4_10010702"/>
    <vehicle id="10010704.0" route="10010702" type="bus" depart="47630" line="359.4_10010702"/>
    <vehicle id="10010705.0" route="10010702" type="bus" depart="44030" line="359.4_10010702"/>
    <vehicle id="10010706.0" route="10010702" type="bus" depart="40430" line="359.4_10010702"/>
    <vehicle id="10010707.0" route="10010702" type="bus" depart="36830" line="359.4_10010702"/>
    <vehicle id="10010708.0" route="10010702" type="bus" depart="33230" line="359.4_10010702"/>
    <vehicle id="10010715.0" route="10010702" type="bus" depart="29630" line="359.4_10010702"/>
    <vehicle id="10010717.0" route="10010702" type="bus" depart="26030" line="359.4_10010702"/>
    <vehicle id="10010718.0" route="10010702" type="bus" depart="65630" line="359.4_10010702"/>
    <vehicle id="10010719.0" route="10010702" type="bus" depart="62030" line="359.4_10010702"/>
    <vehicle id="10010720.0" route="10010702" type="bus" depart="58430" line="359.4_10010702"/>
    <vehicle id="10010732.0" route="10010731" type="bus" depart="82970" line="359.4_10010731"/>
    <vehicle id="10010733.0" route="10010731" type="bus" depart="79370" line="359.4_10010731"/>
    <vehicle id="10010734.0" route="10010731" type="bus" depart="75770" line="359.4_10010731"/>
    <vehicle id="10010735.0" route="10010731" type="bus" depart="72170" line="359.4_10010731"/>
    <vehicle id="10010736.0" route="10010731" type="bus" depart="68570" line="359.4_10010731"/>
    <vehicle id="10010758.0" route="10010758" type="bus" depart="40490" line="360_10010758"/>
    <vehicle id="10010759.0" route="10010758" type="bus" depart="33290" line="360_10010758"/>
    <vehicle id="10010760.0" route="10010758" type="bus" depart="69290" line="360_10010758"/>
    <vehicle id="10010761.0" route="10010758" type="bus" depart="62090" line="360_10010758"/>
    <vehicle id="10010762.0" route="10010758" type="bus" depart="54890" line="360_10010758"/>
    <vehicle id="10010763.0" route="10010758" type="bus" depart="47690" line="360_10010758"/>
    <vehicle id="10010779.0" route="10010779" type="bus" depart="27290" line="360_10010779"/>
    <vehicle id="10010781.0" route="10010781" type="bus" depart="20090" line="360_10010781"/>
    <vehicle id="10010782.0" route="10010782" type="bus" depart="44090" line="360_10010782"/>
    <vehicle id="10010783.0" route="10010782" type="bus" depart="36890" line="360_10010782"/>
    <vehicle id="10010784.0" route="10010782" type="bus" depart="65690" line="360_10010782"/>
    <vehicle id="10010785.0" route="10010782" type="bus" depart="58490" line="360_10010782"/>
    <vehicle id="10010786.0" route="10010782" type="bus" depart="53090" line="360_10010782"/>
    <vehicle id="10010787.0" route="10010782" type="bus" depart="51290" line="360_10010782"/>
    <vehicle id="10010788.0" route="10010788" type="bus" depart="44690" line="360_10010788"/>
    <vehicle id="10010789.0" route="10010788" type="bus" depart="37490" line="360_10010788"/>
    <vehicle id="10010790.0" route="10010788" type="bus" depart="66290" line="360_10010788"/>
    <vehicle id="10010791.0" route="10010788" type="bus" depart="59090" line="360_10010788"/>
    <vehicle id="10010792.0" route="10010788" type="bus" depart="53690" line="360_10010788"/>
    <vehicle id="10010793.0" route="10010788" type="bus" depart="51890" line="360_10010788"/>
    <vehicle id="10010796.0" route="10010796" type="bus" depart="66470" line="360_10010796"/>
    <vehicle id="10010797.0" route="10010796" type="bus" depart="59270" line="360_10010796"/>
    <vehicle id="10010798.0" route="10010796" type="bus" depart="52070" line="360_10010796"/>
    <vehicle id="10010799.0" route="10010796" type="bus" depart="44870" line="360_10010796"/>
    <vehicle id="10010800.0" route="10010796" type="bus" depart="37670" line="360_10010796"/>
    <vehicle id="10010801.0" route="10010796" type="bus" depart="30470" line="360_10010796"/>
    <vehicle id="10010805.0" route="10010796" type="bus" depart="72470" line="360_10010796"/>
    <vehicle id="10010810.0" route="10010796" type="bus" depart="25070" line="360_10010796"/>
    <vehicle id="10010819.0" route="10010819" type="bus" depart="29690" line="365_10010819"/>
    <vehicle id="10010820.0" route="10010819" type="bus" depart="22490" line="365_10010819"/>
    <vehicle id="10010826.0" route="10010826" type="bus" depart="44090" line="365_10010826"/>
    <vehicle id="10010827.0" route="10010826" type="bus" depart="36890" line="365_10010826"/>
    <vehicle id="10010828.0" route="10010826" type="bus" depart="65690" line="365_10010826"/>
    <vehicle id="10010829.0" route="10010826" type="bus" depart="58490" line="365_10010826"/>
    <vehicle id="10010830.0" route="10010826" type="bus" depart="51290" line="365_10010826"/>
    <vehicle id="10010834.0" route="10010834" type="bus" depart="34070" line="365_10010834"/>
    <vehicle id="10010835.0" route="10010834" type="bus" depart="26870" line="365_10010834"/>
    <vehicle id="10010836.0" route="10010834" type="bus" depart="21170" line="365_10010834"/>
    <vehicle id="10010839.0" route="10010839" type="bus" depart="48470" line="365_10010839"/>
    <vehicle id="10010840.0" route="10010839" type="bus" depart="41270" line="365_10010839"/>
    <vehicle id="10010841.0" route="10010839" type="bus" depart="62870" line="365_10010839"/>
    <vehicle id="10010842.0" route="10010839" type="bus" depart="55670" line="365_10010839"/>
    <vehicle id="10010844.0" route="10010844" type="bus" depart="70190" line="369_10010844"/>
    <vehicle id="10010845.0" route="10010845" type="bus" depart="62990" line="369_10010845"/>
    <vehicle id="10010846.0" route="10010845" type="bus" depart="55790" line="369_10010845"/>
    <vehicle id="10010847.0" route="10010845" type="bus" depart="48590" line="369_10010845"/>
    <vehicle id="10010848.0" route="10010845" type="bus" depart="41390" line="369_10010845"/>
    <vehicle id="10010849.0" route="10010845" type="bus" depart="34190" line="369_10010845"/>
    <vehicle id="10010850.0" route="10010845" type="bus" depart="26990" line="369_10010845"/>
    <vehicle id="10010853.0" route="10010853" type="bus" depart="77090" line="369_10010853"/>
    <vehicle id="10010869.0" route="10010869" type="bus" depart="30590" line="369_10010869"/>
    <vehicle id="10010870.0" route="10010869" type="bus" depart="23390" line="369_10010869"/>
    <vehicle id="10010871.0" route="10010871" type="bus" depart="80990" line="369_10010871"/>
    <vehicle id="10010872.0" route="10010871" type="bus" depart="73790" line="369_10010871"/>
    <vehicle id="10010894.0" route="10010894" type="bus" depart="66590" line="369_10010894"/>
    <vehicle id="10010895.0" route="10010894" type="bus" depart="59390" line="369_10010894"/>
    <vehicle id="10010896.0" route="10010894" type="bus" depart="52190" line="369_10010894"/>
    <vehicle id="10010897.0" route="10010894" type="bus" depart="44990" line="369_10010894"/>
    <vehicle id="10010898.0" route="10010894" type="bus" depart="37790" line="369_10010894"/>
    <vehicle id="10010912.0" route="10010912" type="bus" depart="38810" line="370_10010912"/>
    <vehicle id="10010913.0" route="10010912" type="bus" depart="31610" line="370_10010912"/>
    <vehicle id="10010914.0" route="10010912" type="bus" depart="26210" line="370_10010912"/>
    <vehicle id="10010916.0" route="10010912" type="bus" depart="65810" line="370_10010912"/>
    <vehicle id="10010917.0" route="10010912" type="bus" depart="60410" line="370_10010912"/>
    <vehicle id="10010918.0" route="10010912" type="bus" depart="53210" line="370_10010912"/>
    <vehicle id="10010919.0" route="10010912" type="bus" depart="46010" line="370_10010912"/>
    <vehicle id="10010920.0" route="10010912" type="bus" depart="20810" line="370_10010912"/>
    <vehicle id="10010933.0" route="10010933" type="bus" depart="40610" line="370_10010933"/>
    <vehicle id="10010934.0" route="10010933" type="bus" depart="33410" line="370_10010933"/>
    <vehicle id="10010935.0" route="10010933" type="bus" depart="27410" line="370_10010933"/>
    <vehicle id="10010936.0" route="10010933" type="bus" depart="67010" line="370_10010933"/>
    <vehicle id="10010937.0" route="10010933" type="bus" depart="62210" line="370_10010933"/>
    <vehicle id="10010939.0" route="10010933" type="bus" depart="55010" line="370_10010933"/>
    <vehicle id="10010940.0" route="10010933" type="bus" depart="47810" line="370_10010933"/>
    <vehicle id="10010941.0" route="10010933" type="bus" depart="22610" line="370_10010933"/>
    <vehicle id="10010956.0" route="10010956" type="bus" depart="70190" line="379_10010956"/>
    <vehicle id="10010962.0" route="10010956" type="bus" depart="84590" line="379_10010956"/>
    <vehicle id="10010964.0" route="10010956" type="bus" depart="77390" line="379_10010956"/>
    <vehicle id="10010977.0" route="10010977" type="bus" depart="77090" line="379_10010977"/>
    <vehicle id="10010978.0" route="10010977" type="bus" depart="69890" line="379_10010977"/>
    <vehicle id="10010995.0" route="10010995" type="bus" depart="49280" line="380_10010995"/>
    <vehicle id="10010996.0" route="10010995" type="bus" depart="42080" line="380_10010995"/>
    <vehicle id="10010997.0" route="10010995" type="bus" depart="34880" line="380_10010995"/>
    <vehicle id="10010998.0" route="10010995" type="bus" depart="28280" line="380_10010995"/>
    <vehicle id="10010999.0" route="10010995" type="bus" depart="22880" line="380_10010995"/>
    <vehicle id="10011000.0" route="10010995" type="bus" depart="63680" line="380_10010995"/>
    <vehicle id="10011001.0" route="10010995" type="bus" depart="56480" line="380_10010995"/>
    <vehicle id="10011008.0" route="10011008" type="bus" depart="19190" line="380_10011008"/>
    <vehicle id="10011012.0" route="10011012" type="bus" depart="52490" line="380_10011012"/>
    <vehicle id="10011014.0" route="10011012" type="bus" depart="45290" line="380_10011012"/>
    <vehicle id="10011015.0" route="10011012" type="bus" depart="38090" line="380_10011012"/>
    <vehicle id="10011016.0" route="10011012" type="bus" depart="30890" line="380_10011012"/>
    <vehicle id="10011017.0" route="10011012" type="bus" depart="23990" line="380_10011012"/>
    <vehicle id="10011018.0" route="10011012" type="bus" depart="66890" line="380_10011012"/>
    <vehicle id="10011019.0" route="10011012" type="bus" depart="59690" line="380_10011012"/>
    <vehicle id="10180967.0" route="10180967" type="bus" depart="62990" line="389_10180967"/>
    <vehicle id="10180968.0" route="10180967" type="bus" depart="55790" line="389_10180967"/>
    <vehicle id="10180970.0" route="10180967" type="bus" depart="41390" line="389_10180967"/>
    <vehicle id="10180976.0" route="10180967" type="bus" depart="34190" line="389_10180967"/>
    <vehicle id="10180979.0" route="10180967" type="bus" depart="26990" line="389_10180967"/>
    <vehicle id="10180984.0" route="10180984" type="bus" depart="48590" line="389_10180984"/>
    <vehicle id="10180987.0" route="10180987" type="bus" depart="77390" line="389_10180987"/>
    <vehicle id="10180991.0" route="10180987" type="bus" depart="80990" line="389_10180987"/>
    <vehicle id="10180993.0" route="10180987" type="bus" depart="73790" line="389_10180987"/>
    <vehicle id="10180994.0" route="10180987" type="bus" depart="70190" line="389_10180987"/>
    <vehicle id="10180996.0" route="10180995" type="bus" depart="84590" line="389_10180995"/>
    <vehicle id="10181012.0" route="10181012" type="bus" depart="59090" line="389_10181012"/>
    <vehicle id="10181013.0" route="10181012" type="bus" depart="44690" line="389_10181012"/>
    <vehicle id="10181014.0" route="10181012" type="bus" depart="37490" line="389_10181012"/>
    <vehicle id="10181019.0" route="10181012" type="bus" depart="30290" line="389_10181012"/>
    <vehicle id="10181021.0" route="10181012" type="bus" depart="66290" line="389_10181012"/>
    <vehicle id="10181028.0" route="10181028" type="bus" depart="55490" line="389_10181028"/>
    <vehicle id="10181029.0" route="10181028" type="bus" depart="48290" line="389_10181028"/>
    <vehicle id="10181030.0" route="10181028" type="bus" depart="41090" line="389_10181028"/>
    <vehicle id="10181031.0" route="10181028" type="bus" depart="33890" line="389_10181028"/>
    <vehicle id="10181032.0" route="10181028" type="bus" depart="62690" line="389_10181028"/>