<?xml version="1.0" encoding="UTF-8"?>

<!-- generated on 2022-01-27 09:38:18 by Eclipse SUMO polyconvert Version 1.11.0
<configuration xmlns:xsi="http://www.w3.org/2001/XMLSchema-instance" xsi:noNamespaceSchemaLocation="http://sumo.dlr.de/xsd/polyconvertConfiguration.xsd">

    <input>
        <net-file value="osm.net.xml"/>
        <osm-files value="osm_bbox.osm"/>
    </input>

    <output>
        <output-file value="osm_polygons.add.xml"/>
    </output>

    <processing>
        <poi-layer-offset value="5"/>
    </processing>

</configuration>
-->

<additional xmlns:xsi="http://www.w3.org/2001/XMLSchema-instance" xsi:noNamespaceSchemaLocation="http://sumo.dlr.de/xsd/additional_file.xsd">
    <location netOffset="-543074.33,-5627577.65" convBoundary="-24795.32,-12379.63,22057.89,28581.80" origBoundary="9.260101,50.686185,9.926936,51.055423" projParameter="+proj=utm +zone=32 +ellps=WGS84 +datum=WGS84 +units=m +no_defs"/>

    <poly id="100529732" type="leisure" color="207,245,201" fill="1" layer="-2.00" shape="4911.595358,9250.452473 4980.742159,9232.619756 4990.069137,9268.571078 4954.780072,9277.675257 4950.208424,9260.028544 4916.343886,9268.768041 4911.595358,9250.452473"/>
    <poly id="100529732#1" type="sport" color="79,230,125" fill="1" layer="-2.00" shape="4911.595358,9250.452473 4980.742159,9232.619756 4990.069137,9268.571078 4954.780072,9277.675257 4950.208424,9260.028544 4916.343886,9268.768041 4911.595358,9250.452473"/>
    <poly id="100655978" type="building" color="255,230,230" fill="1" layer="-1.00" shape="8413.013999,7612.459927 8406.782903,7607.760738 8404.807766,7610.354617 8411.045896,7615.053873 8405.918767,7621.820281 8421.887705,7633.855727 8443.736824,7605.035234 8438.260127,7600.910657 8439.693527,7599.012046 8440.489798,7599.620473 8448.554947,7588.979740 8438.698401,7581.542167 8430.633261,7592.182915 8431.352788,7592.723854 8429.919389,7594.622468 8427.760809,7592.999651 8413.013999,7612.459927"/>
    <poly id="100655981" type="building" color="255,230,230" fill="1" layer="-1.00" shape="8409.848019,7923.539427 8408.829910,7917.624073 8403.232711,7918.591766 8404.257972,7924.496069 8409.848019,7923.539427"/>
    <poly id="100655985" type="building" color="255,230,230" fill="1" layer="-1.00" shape="8545.118802,7661.368227 8555.221151,7651.114883 8547.591321,7643.421191 8537.266108,7653.438795 8545.118802,7661.368227"/>
    <poly id="100655986" type="building" color="255,230,230" fill="1" layer="-1.00" shape="8276.497484,8199.256185 8283.894170,8190.621509 8277.362534,8185.063171 8269.965961,8193.686737 8276.497484,8199.256185"/>
    <poly id="100655987" type="building" color="255,230,230" fill="1" layer="-1.00" shape="9115.913270,7906.159909 9119.313751,7907.417374 9118.662923,7909.156845 9149.687358,7920.678527 9153.469641,7910.551885 9154.330242,7908.247353 9136.977595,7901.800722 9136.124037,7904.105328 9122.445152,7899.030181 9113.716248,7895.784142 9110.584748,7904.182460 9109.008223,7908.403754 9114.336742,7910.381202 9115.913270,7906.159909"/>
    <poly id="100655988" type="building" color="255,230,230" fill="1" layer="-1.00" shape="8280.925095,8122.208929 8285.340289,8124.043048 8287.243268,8119.468868 8282.827961,8117.645868 8280.925095,8122.208929"/>
    <poly id="100655992" type="building" color="255,230,230" fill="1" layer="-1.00" shape="8354.046800,8199.711664 8364.854442,8199.818631 8364.921694,8193.024342 8364.140672,8193.016612 8364.206272,8186.389123 8352.490927,8186.273175 8352.423031,8193.134183 8354.111727,8193.150895 8354.046800,8199.711664"/>
    <poly id="100655995" type="building" color="255,230,230" fill="1" layer="-1.00" shape="8276.875668,8217.242635 8279.907374,8213.802830 8282.981522,8210.341205 8278.035374,8205.988486 8274.982446,8209.439203 8271.929522,8212.889922 8276.875668,8217.242635"/>
    <poly id="100655996" type="building" color="255,230,230" fill="1" layer="-1.00" shape="8504.535973,7892.927896 8514.473477,7890.012727 8511.654784,7880.465141 8501.717263,7883.380316 8504.535973,7892.927896"/>
    <poly id="100655998" type="building" color="255,230,230" fill="1" layer="-1.00" shape="8450.472601,7815.812196 8459.497076,7813.432799 8456.193439,7800.966727 8447.168834,7803.357250 8450.472601,7815.812196"/>
    <poly id="100655999" type="building" color="255,230,230" fill="1" layer="-1.00" shape="8247.728770,8129.610109 8255.384437,8133.945074 8260.598043,8124.766114 8252.942257,8120.442261 8247.728770,8129.610109"/>
    <poly id="100656000" type="building" color="255,230,230" fill="1" layer="-1.00" shape="8261.068112,8094.988633 8272.208786,8097.734377 8274.898587,8086.884584 8263.757890,8084.138834 8261.068112,8094.988633"/>
    <poly id="100656002" type="building" color="255,230,230" fill="1" layer="-1.00" shape="8348.246188,8278.869415 8354.213696,8278.839501 8354.184287,8273.278691 8348.223808,8273.308675 8348.246188,8278.869415"/>
    <poly id="100656004" type="building" color="255,230,230" fill="1" layer="-1.00" shape="8412.741837,7911.312715 8426.098923,7909.154122 8424.884827,7901.713241 8426.985379,7901.367061 8426.209144,7896.610688 8424.468120,7896.893704 8424.030256,7894.209196 8410.320640,7896.431028 8412.741837,7911.312715"/>
    <poly id="100656005" type="building" color="255,230,230" fill="1" layer="-1.00" shape="8259.653560,8116.371526 8262.581274,8109.216259 8254.969565,8106.127274 8253.247790,8110.169445 8250.899730,8109.223209 8249.700947,8112.325259 8259.653560,8116.371526"/>
    <poly id="100656007" type="building" color="255,230,230" fill="1" layer="-1.00" shape="8628.314992,7700.573841 8637.259278,7706.990692 8647.977416,7692.150664 8639.026081,7685.733724 8628.314992,7700.573841"/>
    <poly id="101374527" type="residential" color="235,235,227" fill="1" layer="-3.00" shape="11341.002771,8926.536370 11389.878521,8860.432753 11371.365328,8837.039985 11367.466286,8827.735204 11256.363298,8742.451838 11187.473323,8690.352239 11160.445552,8727.537201 11138.912035,8707.539080 11121.649445,8696.982965 11106.255248,8692.807686 11079.639182,8687.848214 11045.680424,8683.246119 10936.702442,8664.863286 10908.683454,8660.134777 10799.397294,8642.885993 10799.514387,8649.237374 10799.396540,8656.531616 10791.428911,8709.029729 10629.003539,8674.229697 10629.338058,8634.375036 10618.559556,8631.527849 10613.871657,8629.644423 10594.623565,8621.126976 10576.158273,8626.063123 10567.588273,8628.754924 10545.974073,8636.094197 10523.159362,8641.130224 10490.401346,8651.034978 10470.472947,8657.313192 10411.560882,8681.584380 10381.852096,8685.137679 10354.264742,8692.460777 10330.636956,8700.658799 10335.687352,8755.582304 10325.950920,8772.530902 10323.084544,8786.480689 10356.632318,8789.294458 10380.408633,8787.826364 10439.253097,8799.364158 10483.839018,8822.799803 10511.481698,8831.214364 10548.067069,8837.597223 10579.353495,8847.451017 10576.489250,8859.087503 10534.051862,8853.889623 10532.757571,8859.992889 10572.026744,8873.554498 10656.374731,8885.858621 10659.809316,8892.566820 10660.487530,8898.423550 10664.031663,8929.232380 10707.236233,8930.257730 10713.774290,8936.219614 10937.428728,9015.998633 10932.605898,9028.493148 10927.027167,9043.315250 10919.579892,9053.113424 10921.340889,9056.979642 10928.853028,9059.893614 10942.804316,9032.224666 10960.200025,9042.759347 10956.939416,9055.225604 10969.273980,9059.891325 10968.557686,9070.582417 11035.727883,8985.548638 11068.299806,9015.014263 11080.311023,9003.451120 11110.129727,9029.718787 11124.162344,9015.263085 11164.748707,9037.194951 11206.590130,9073.653360 11200.876083,9079.131998 11233.633187,9111.603336 11241.618361,9123.086001 11255.842600,9136.068551 11246.978762,9145.373241 11277.238473,9173.715049 11261.093444,9189.004577 11224.101716,9186.805066 11220.237719,9192.325261 11217.104153,9199.988354 11230.738858,9240.411699 11244.618630,9282.272278 11286.408857,9267.573506 11296.558406,9291.367798 11305.396146,9380.652035 11304.824396,9382.848041 11287.966675,9385.618710 11289.588778,9424.904517 11302.746128,9426.132102 11299.995143,9478.572965 11268.790673,9484.908007 11288.275438,9519.476285 11270.901355,9539.368194 11260.645058,9546.667599 11278.045773,9557.170083 11292.852858,9569.458231 11299.494714,9575.444212 11311.503480,9586.891278 11319.375613,9596.315487 11378.159449,9622.654645 11392.904790,9628.714582 11399.842421,9608.491194 11408.452490,9600.529767 11418.394682,9586.298865 11411.949889,9564.222461 11400.924761,9545.534471 11387.743864,9535.175904 11365.942198,9523.047719 11352.959770,9501.792578 11371.584492,9501.565150 11386.183089,9510.248119 11386.811365,9501.991677 11394.329811,9467.316852 11401.297581,9441.555441 11441.291830,9430.320019 11443.264591,9409.266104 11442.416412,9382.154912 11445.184560,9346.318191 11450.441211,9348.219476 11473.512826,9362.741268 11486.983655,9342.842385 11521.220521,9364.054282 11593.007025,9409.827743 11596.703113,9402.904784 11611.171183,9351.132300 11669.222190,9371.706233 11676.512824,9348.828957 11712.989703,9360.368073 11703.798861,9383.959262 11781.502960,9411.492298 11794.585461,9374.507955 11819.047417,9386.521477 11823.360419,9393.818066 11823.098079,9401.333214 11829.915784,9383.989492 11836.997165,9381.639923 11817.945564,9370.951298 11833.896294,9363.501858 11844.402199,9356.662174 11853.820518,9347.553410 11877.333203,9323.602377 11884.692859,9309.589691 11882.043839,9308.605245 11833.606967,9289.698628 11820.452406,9329.462411 11787.353971,9317.791400 11714.502636,9277.620218 11682.949292,9261.484344 11677.501199,9266.398088 11641.665689,9239.985858 11633.918361,9269.486591 11589.764602,9251.283526 11581.732730,9283.116784 11566.651593,9275.462467 11531.044414,9254.725208 11536.037972,9247.526694 11516.562856,9240.882850 11521.063009,9229.753365 11474.127767,9214.391328 11456.782082,9203.933269 11434.139656,9182.632160 11454.349728,9154.140517 11452.385653,9110.002239 11442.255507,9087.742568 11419.990287,9117.625088 11413.864170,9091.937672 11434.504028,9064.751636 11406.108623,9025.040393 11415.175462,9011.856810 11381.187757,8990.103346 11351.427484,8948.287337 11341.002771,8926.536370"/>
    <poly id="101374528" type="residential" color="235,235,227" fill="1" layer="-3.00" shape="11020.884807,7811.146609 10931.803823,7831.450433 10899.407263,7816.144870 10846.760588,7816.043258 10760.720035,7748.079880 10634.973688,7749.959579 10633.639065,7768.784950 10598.672421,7767.122571 10599.440888,7746.545332 10517.053609,7751.811796 10445.594040,7758.626700 10430.018629,7643.207230 10345.826538,7650.014807 10341.799277,7509.102477 10174.274153,7503.758137 10147.523343,7733.290390 9998.839352,7724.374496 9930.014572,7739.942317 9946.916998,7782.208026 9950.217978,7790.449064 10001.651377,7872.836385 10009.925624,7886.099382 9945.388248,7878.256385 9967.457462,7959.632161 10008.937950,7953.171717 10062.203338,8090.828017 9942.157226,8116.337088 9901.496586,8092.901788 9825.197434,8227.979802 9869.143551,8276.281394 9894.325043,8300.092481 10043.534257,8383.377834 10045.917368,8379.476446 10101.404751,8411.527798 10060.818271,8480.230280 10075.557206,8512.142888 10049.349830,8547.562512 10074.271586,8565.600009 10058.499967,8597.534222 10063.974039,8599.625362 10099.248578,8610.540150 10111.558530,8614.347224 10148.164560,8627.833832 10155.465423,8619.189669 10157.322139,8608.287761 10146.707344,8580.498590 10143.552150,8556.044322 10147.719280,8540.094850 10163.032612,8538.539068 10173.118707,8536.896401 10189.276588,8540.131428 10210.590957,8551.037341 10219.275772,8565.272460 10217.445002,8585.293924 10229.759113,8587.321943 10235.080665,8590.557175 10242.809659,8569.695423 10243.714229,8567.258060 10244.366785,8546.179130 10248.933000,8524.284034 10262.704138,8520.110380 10245.737812,8506.513076 10192.370474,8471.701600 10208.639004,8453.184930 10271.454395,8488.894277 10265.569946,8473.308800 10332.406094,8414.197079 10302.130574,8373.449650 10306.619190,8361.885318 10365.634177,8381.275443 10383.211349,8328.664314 10448.205436,8357.158352 10450.601210,8324.731615 10460.812121,8306.242295 10458.315856,8292.404155 10445.899790,8270.834759 10427.059374,8264.257237 10413.421656,8275.215720 10367.330665,8256.680837 10365.451233,8250.578263 10365.195622,8246.694367 10372.096649,8223.644549 10371.569561,8209.893437 10368.545820,8187.786938 10367.951427,8170.999072 10370.650122,8151.498159 10374.517503,8133.999945 10379.057257,8117.498428 10386.723655,8104.209715 10388.868023,8097.559110 10400.137458,8077.434638 10407.700603,8059.829903 10418.210319,8051.997597 10421.780965,8046.940883 10422.759382,8045.549695 10430.072057,8031.779195 10432.020190,8013.438301 10438.636401,8003.753210 10449.894882,7997.029666 10457.882308,7991.551379 10466.351474,7987.812960 10484.224376,7984.571816 10465.805698,7939.007913 10525.950271,7926.393733 10544.388724,7922.246693 10559.017023,7919.750806 10594.151301,7916.665952 10614.611806,7915.709558 10634.150946,7916.745523 10674.488461,7920.220836 10710.336516,7926.374675 10740.909286,7935.654775 10807.032173,7960.105711 10873.367401,7983.024988 10908.305743,7995.398592 10917.404506,7998.151058 10912.925116,8014.763971 10889.584909,8073.496894 10917.465331,8085.096658 10994.803168,8088.536413 11025.020776,8089.885151 11028.281361,8097.092224 11128.183847,8098.822727 11128.219675,8081.218344 11139.737624,8080.726823 11184.390541,8073.118882 11211.859647,8066.099157 11295.666023,8033.778644 11308.015583,8087.656332 11328.640303,8084.413521 11333.716255,8058.665609 11326.939186,8029.779785 11344.224243,8022.909945 11332.883367,7913.703938 11374.762643,7890.899334 11404.039000,7915.683763 11416.099737,7920.514443 11471.057918,7904.798466 11447.164384,7873.408556 11426.151340,7876.012935 11415.461631,7875.322551 11403.396328,7872.260088 11384.668107,7860.987158 11346.825942,7886.680969 11313.626271,7838.645999 11281.279437,7853.009748 11269.873884,7831.259868 11238.207337,7788.612940 11180.683405,7721.752442 11143.652434,7677.782320 11097.286170,7614.475625 11077.073502,7584.760661 11017.018723,7615.274491 10996.742811,7582.801151 10961.761037,7602.110625 10976.820283,7627.990357 10937.790509,7648.814851 11020.884807,7811.146609"/>
    <poly id="101569239" type="landuse" color="194,194,130" fill="1" layer="-3.00" shape="6920.812643,9433.568436 6953.981791,9281.073983 7180.402021,9284.004494 7162.392365,9350.834423 7175.881349,9361.507610 7197.807413,9513.021213 6920.812643,9433.568436"/>
    <poly id="101569241" type="landuse" color="194,194,130" fill="1" layer="-3.00" shape="8669.433974,8469.013616 8593.457872,8213.763550 8607.366337,8182.273596 8638.708792,8142.683074 8664.579606,8122.611301 8693.847150,8140.218236 8752.374045,8197.363242 8784.215777,8239.006726 8819.948379,8289.808534 8831.803788,8312.513803 8839.677662,8355.508615 8847.980157,8390.100208 8851.999772,8406.833081 8847.142280,8421.842457 8838.500496,8430.374937 8842.929332,8451.927312 8675.690286,8488.715699 8669.433974,8469.013616"/>
    <poly id="101569243" type="building" color="255,230,230" fill="1" layer="-1.00" shape="7754.821515,8013.855872 7859.180185,8031.314449 7837.136653,8162.382069 7732.513614,8144.876821 7742.219172,8087.142441 7667.270347,8074.610726 7672.425685,8043.911468 7747.648929,8056.490418 7754.821515,8013.855872"/>
    <poly id="101569245" type="parking" color="184,184,179" fill="1" layer="-1.00" shape="8562.089480,8222.048336 8558.452561,8192.185558 8510.903072,8197.952250 8514.547405,8227.803943 8562.089480,8222.048336"/>
    <poly id="101569247" type="parking" color="184,184,179" fill="1" layer="-1.00" shape="7582.509971,8293.245857 7853.179203,8343.500508 7862.499687,8293.569502 7591.828033,8243.303265 7582.613896,8292.690819 7582.509971,8293.245857"/>
    <poly id="101569248" type="landuse" color="194,194,130" fill="1" layer="-3.00" shape="7028.092809,9658.167803 7083.242232,9496.855878 7200.693816,9527.350781 7271.000136,9515.242535 7268.539157,9613.828801 7236.616633,9636.851421 7222.251901,9638.969876 7172.566070,9625.688713 7140.847764,9627.639556 7087.209443,9633.148891 7060.592361,9653.966249 7028.092809,9658.167803"/>
    <poly id="101569250" type="landuse" color="194,194,130" fill="1" layer="-3.00" shape="6447.574000,9748.953113 6398.393960,9398.106415 6415.355276,9395.954810 6477.344195,9403.907837 6537.555855,9421.141785 6582.872676,9446.574783 6617.559835,9466.034601 6646.048249,9751.605414 6447.574000,9748.953113"/>
    <poly id="101569253" type="landuse" color="194,194,130" fill="1" layer="-3.00" shape="6953.395805,9263.752931 6988.802696,9082.209948 7111.118158,9111.314910 7122.040867,9073.097432 7255.319033,9108.572860 7185.786997,9273.524988 6953.395805,9263.752931"/>
    <poly id="101569255" type="landuse" color="194,194,130" fill="1" layer="-3.00" shape="6792.413064,9756.767434 6847.416619,9609.764453 6862.215623,9561.730487 6919.133453,9451.612795 7074.247228,9489.996334 7022.108267,9652.838720 6988.573137,9686.390015 6935.420181,9719.752604 6917.755613,9751.199605 6897.124109,9778.102987 6792.413064,9756.767434"/>
    <poly id="101569256" type="leisure" color="207,245,201" fill="1" layer="-2.00" shape="8481.843474,8125.310380 8466.268201,8021.240899 8533.556603,8012.122136 8550.650889,8115.450698 8481.843474,8125.310380"/>
    <poly id="101569258" type="landuse" color="194,194,130" fill="1" layer="-3.00" shape="6617.559835,9466.034601 6813.915163,9325.645628 6814.247704,9291.018016 6786.332857,9210.956829 6713.594898,9082.278784 6702.063923,9024.950771 6693.081872,9017.335810 6604.132614,9004.440479 6499.913111,9009.472553 6499.030697,9030.427196 6493.268170,9045.941597 6487.529166,9069.318767 6485.540763,9086.737509 6488.535316,9109.875491 6532.077341,9202.862199 6535.718203,9217.965911 6536.407158,9232.018304 6532.006740,9242.674678 6523.140522,9250.207904 6499.679034,9258.880760 6475.021861,9263.839026 6461.043924,9266.641666 6444.248360,9271.285811 6422.899283,9286.440441 6415.691421,9298.638222 6412.460805,9309.861888 6416.303526,9395.374431 6477.344195,9403.907837 6537.555855,9421.141785 6617.559835,9466.034601"/>
    <poly id="101569264" type="building" color="255,230,230" fill="1" layer="-1.00" shape="7170.112448,8756.224130 7165.634423,8732.526449 7142.824041,8736.809947 7137.743410,8709.925863 7123.638362,8712.580946 7115.551702,8669.820417 7142.457873,8664.764544 7144.660054,8676.429518 7158.765212,8673.774492 7156.589913,8662.243223 7154.407460,8650.723007 7120.332253,8657.133048 7116.148327,8635.006321 7149.483427,8628.744791 7147.274520,8617.046388 7114.630130,8623.181153 7111.517404,8606.703126 7151.932409,8589.400113 7188.235883,8587.638164 7190.739437,8600.874134 7175.315922,8603.772111 7179.566433,8626.266525 7213.169564,8619.952388 7249.189241,8613.328242 7251.175546,8624.012524 7253.602424,8637.881684 7254.735867,8643.631102 7230.414083,8647.721647 7195.820229,8653.180888 7197.756923,8665.366005 7232.343663,8659.906709 7234.827362,8675.177657 7220.534144,8677.630479 7221.562480,8684.791240 7222.241395,8689.524240 7230.155239,8688.266331 7231.668479,8697.667111 7223.599329,8698.979119 7225.919208,8715.182642 7233.762767,8713.912938 7235.561399,8725.084724 7227.527683,8726.374826 7229.340362,8739.003598 7209.603230,8742.716024 7213.646128,8764.096365 7173.044394,8771.721803 7170.112448,8756.224130"/>
    <poly id="101569270" type="landuse" color="194,194,130" fill="1" layer="-3.00" shape="6659.645594,9750.223134 6700.978361,9689.653698 6740.386156,9594.435306 6753.113900,9526.808213 6841.648577,9502.813884 6843.400100,9556.278282 6807.449510,9684.647487 6774.350611,9752.078926 6659.645594,9750.223134"/>
    <poly id="101569272" type="leisure" color="207,245,201" fill="1" layer="-2.00" shape="8377.152767,8472.239055 8371.894512,8413.445648 8411.918958,8409.882967 8417.183802,8468.676487 8377.152767,8472.239055"/>
    <poly id="101569275" type="landuse" color="194,194,130" fill="1" layer="-3.00" shape="6431.943698,9753.285878 6343.993399,9767.539547 6252.684091,9765.915383 6217.361112,9750.522230 6195.735093,9722.470089 6186.953392,9693.783612 6181.396263,9643.297229 6174.929489,9608.605156 6102.800927,9534.979255 6152.499829,9507.147091 6282.687595,9427.521753 6337.083700,9410.501077 6398.393960,9398.106415 6431.943698,9753.285878"/>
    <poly id="101982932" type="amenity" color="237,199,199" fill="1" layer="-1.00" shape="6313.939772,5171.574902 6277.389530,5171.650599 6274.884736,5172.205123 6272.932540,5173.143002 6271.314375,5174.495523 6270.165908,5176.063798 6269.735973,5177.594406 6269.760416,5178.728971 6274.158784,5204.938204 6274.389714,5205.830068 6274.873143,5206.824416 6276.320876,5207.850154 6278.378818,5208.381240 6280.012791,5208.330018 6300.465158,5208.479628 6313.450744,5197.126120 6313.939772,5171.574902"/>
    <poly id="101982938" type="kindergarten" color="237,199,199" fill="1" layer="-2.00" shape="6327.580218,5266.243330 6333.613545,5266.311755 6340.815965,5266.346810 6343.731292,5269.265945 6351.127987,5261.451492 6345.170077,5255.667612 6342.361040,5255.640925 6342.371499,5254.540054 6342.381957,5253.439182 6331.892065,5253.339537 6331.876291,5255.741505 6327.701457,5255.701853 6327.662839,5259.026640 6327.580218,5266.243330"/>
    <poly id="101982938#1" type="building" color="255,230,230" fill="1" layer="-1.00" shape="6327.580218,5266.243330 6333.613545,5266.311755 6340.815965,5266.346810 6343.731292,5269.265945 6351.127987,5261.451492 6345.170077,5255.667612 6342.361040,5255.640925 6342.371499,5254.540054 6342.381957,5253.439182 6331.892065,5253.339537 6331.876291,5255.741505 6327.701457,5255.701853 6327.662839,5259.026640 6327.580218,5266.243330"/>
    <poly id="101982941" type="building" color="255,230,230" fill="1" layer="-1.00" shape="6341.013758,5221.809420 6344.801407,5221.845403 6344.844578,5218.042460 6341.064072,5217.995424 6341.013758,5221.809420"/>
    <poly id="101982941#1" type="man_made" color="255,230,230" fill="1" layer="-1.00" shape="6341.013758,5221.809420 6344.801407,5221.845403 6344.844578,5218.042460 6341.064072,5217.995424 6341.013758,5221.809420"/>
    <poly id="101982943" type="amenity" color="237,199,199" fill="1" layer="-1.00" shape="6316.880248,5248.971026 6317.053196,5228.532425 6318.968244,5228.539489 6319.022024,5222.134352 6328.674296,5222.214894 6328.616104,5228.341966 6342.654428,5228.464193 6342.614247,5233.434861 6344.522148,5233.452986 6346.922864,5233.475795 6346.907929,5235.788804 6346.845662,5243.083533 6350.161601,5243.115039 6350.076997,5253.501172 6342.381957,5253.439182 6331.892065,5253.339537 6331.932306,5249.102850 6316.880248,5248.971026"/>
    <poly id="101982943#1" type="building" color="255,230,230" fill="1" layer="-1.00" shape="6316.880248,5248.971026 6317.053196,5228.532425 6318.968244,5228.539489 6319.022024,5222.134352 6328.674296,5222.214894 6328.616104,5228.341966 6342.654428,5228.464193 6342.614247,5233.434861 6344.522148,5233.452986 6346.922864,5233.475795 6346.907929,5235.788804 6346.845662,5243.083533 6350.161601,5243.115039 6350.076997,5253.501172 6342.381957,5253.439182 6331.892065,5253.339537 6331.932306,5249.102850 6316.880248,5248.971026"/>
    <poly id="101985907" type="building" color="255,230,230" fill="1" layer="-1.00" shape="6255.825143,6102.255958 6303.202711,6110.356804 6305.505433,6096.933465 6258.127640,6088.843719 6255.825143,6102.255958"/>
    <poly id="101985910" type="building" color="255,230,230" fill="1" layer="-1.00" shape="6249.833182,6063.787436 6275.337623,6069.033823 6277.757674,6057.335331 6252.253178,6052.088932 6249.833182,6063.787436"/>
    <poly id="101985911" type="building" color="255,230,230" fill="1" layer="-1.00" shape="6288.819944,6068.160901 6301.186258,6070.647060 6302.781455,6062.788588 6290.422267,6060.291373 6288.819944,6068.160901"/>
    <poly id="101985912" type="building" color="255,230,230" fill="1" layer="-1.00" shape="6314.384104,6098.986186 6324.511215,6100.783880 6329.337535,6073.672416 6319.210372,6071.874714 6314.384104,6098.986186"/>
    <poly id="102868612" type="residential" color="235,235,227" fill="1" layer="-3.00" shape="4364.108689,5467.180336 4241.181561,5465.682520 4056.045712,5474.188350 4055.747730,5560.683589 4038.512449,5577.064138 4092.908202,5658.327878 4064.331126,5688.717853 4050.378115,5667.673092 4015.526185,5637.675882 3988.569118,5639.233459 3925.470030,5659.992649 3986.287249,5804.268427 4024.588146,5768.149882 4047.357967,5731.379312 4112.576772,5694.993799 4119.233022,5714.026367 4100.936484,5741.106458 4072.407101,5820.639861 4095.434007,5840.143341 4181.526486,5788.923789 4239.386764,5746.556708 4323.870962,5718.411746 4317.988838,5796.838041 4340.828642,5808.978905 4367.418700,5781.975286 4451.285512,5923.097434 4668.991602,6000.735706 4799.783694,6132.230340 4823.676378,6193.337186 4904.219692,6207.369154 4983.235896,6118.475570 4949.803010,6061.494679 4934.289691,6007.882231 4985.238638,6011.455555 4964.989064,5936.358186 4971.978122,5915.949207 4950.281205,5888.502640 4924.767679,5859.608591 4895.055642,5809.601880 4851.905287,5815.932187 4805.597613,5783.644345 4651.162223,5675.976074 4683.847193,5614.933394 4689.413027,5604.530889 4626.379441,5563.272278 4561.886636,5524.414311 4542.787521,5514.252889 4520.322837,5569.507008 4487.400651,5541.959738 4403.269631,5512.488154 4364.108689,5467.180336"/>
    <poly id="103431954" type="building" color="255,230,230" fill="1" layer="-1.00" shape="6840.238041,6394.241590 6855.331794,6394.820220 6855.641911,6386.716023 6840.555279,6386.126339 6840.238041,6394.241590"/>
    <poly id="104494825" type="amenity" color="237,199,199" fill="1" layer="-1.00" shape="6739.851165,7483.555527 6765.512991,7489.228553 6765.130425,7490.959756 6769.288006,7491.878179 6773.600084,7492.831449 6773.938403,7491.311121 6795.885072,7496.159081 6798.238963,7485.550017 6789.860570,7483.701401 6792.405848,7472.215614 6797.869691,7473.424616 6802.459683,7452.750288 6793.680971,7450.808858 6793.143783,7453.250318 6753.934386,7444.589185 6754.596412,7441.603990 6745.192628,7439.523199 6739.146505,7466.756111 6747.869126,7468.674670 6746.655549,7474.134555 6742.167841,7473.146261 6739.851165,7483.555527"/>
    <poly id="104494825#1" type="building" color="255,230,230" fill="1" layer="-1.00" shape="6739.851165,7483.555527 6765.512991,7489.228553 6765.130425,7490.959756 6769.288006,7491.878179 6773.600084,7492.831449 6773.938403,7491.311121 6795.885072,7496.159081 6798.238963,7485.550017 6789.860570,7483.701401 6792.405848,7472.215614 6797.869691,7473.424616 6802.459683,7452.750288 6793.680971,7450.808858 6793.143783,7453.250318 6753.934386,7444.589185 6754.596412,7441.603990 6745.192628,7439.523199 6739.146505,7466.756111 6747.869126,7468.674670 6746.655549,7474.134555 6742.167841,7473.146261 6739.851165,7483.555527"/>
    <poly id="104494834" type="landuse" color="194,194,130" fill="0" layer="-3.00" shape="6584.143353,7124.337703 6661.815903,7148.111751"/>
    <poly id="104494838" type="parking" color="184,184,179" fill="1" layer="-1.00" shape="7021.030222,7025.260039 7032.741162,7029.020578 7042.662845,7031.473863 7050.900925,7031.152932 7057.315546,7029.424309 7065.167612,7025.340789 7070.560212,7020.844324 7073.254936,7017.300485 7075.907950,7012.243793 7077.740267,7006.167176 7078.509917,6999.346324 7078.334674,6992.705413 7076.106884,6985.054935 7072.105784,6978.821959 7066.064334,6972.502581 7060.924659,6970.473480 7058.198506,6969.246126 7054.499846,6965.952016 7052.893072,6963.968112 7050.304240,6963.097957 7044.479624,6961.295809 7047.399586,6965.783469 7048.341760,6968.806336 7047.810797,6973.505387 7045.704108,6975.920569 7043.415868,6977.455445 7039.748781,6978.187442 7036.968538,6977.460021 7034.805090,6976.271466 7032.471626,6973.735636 7029.761434,6968.660595 7026.517966,6963.413602 7022.729967,6959.162251 7015.769155,6954.746881 7016.389340,6952.473057 7000.337464,6947.769946 6969.105180,6940.685423 6962.408507,6940.265095 6958.531659,6940.850558 6952.958971,6942.120325 6946.211549,6944.780037 6941.219141,6947.189739 6937.015388,6950.296532 6933.409948,6954.131946 6930.222037,6959.928668 6922.874013,6976.739624 6921.132565,6980.704182 7021.030222,7025.260039"/>
    <poly id="104496652" type="building" color="255,230,230" fill="1" layer="-1.00" shape="6795.154521,7154.148939 6804.258183,7142.815048 6811.662061,7148.724599 6802.558286,7160.069597 6795.154521,7154.148939"/>
    <poly id="104697578" type="building" color="255,230,230" fill="1" layer="-1.00" shape="6443.322308,7661.304374 6450.952997,7661.099053 6451.357657,7668.854219 6447.590252,7669.096347 6443.815811,7669.338410 6443.322308,7661.304374"/>
    <poly id="104697578#1" type="historic" color="128,255,128" fill="1" layer="-1.00" shape="6443.322308,7661.304374 6450.952997,7661.099053 6451.357657,7668.854219 6447.590252,7669.096347 6443.815811,7669.338410 6443.322308,7661.304374"/>
    <poly id="104697578#2" type="man_made" color="255,230,230" fill="1" layer="-1.00" shape="6443.322308,7661.304374 6450.952997,7661.099053 6451.357657,7668.854219 6447.590252,7669.096347 6443.815811,7669.338410 6443.322308,7661.304374"/>
    <poly id="104697580" type="amenity" color="237,199,199" fill="1" layer="-1.00" shape="6441.180009,7594.380261 6441.254676,7582.848536 6455.146224,7582.936406 6455.071527,7594.468131 6441.180009,7594.380261"/>
    <poly id="104697580#1" type="building" color="255,230,230" fill="1" layer="-1.00" shape="6441.180009,7594.380261 6441.254676,7582.848536 6455.146224,7582.936406 6455.071527,7594.468131 6441.180009,7594.380261"/>
    <poly id="104709798" type="building" color="255,230,230" fill="1" layer="-1.00" shape="6228.691481,7775.444656 6246.871974,7769.211476 6243.632205,7759.839129 6225.458721,7766.072387 6228.691481,7775.444656"/>