<?xml version="1.0" encoding="UTF-8"?>
<!-- generated on 2022-02-02 11:24:34.717231 by generateTAZBuildingsFromOSM.py UNKNOWN
  options: <doubleminus>osm osm_bbox.osm <doubleminus>net osm.net.xml <doubleminus>single-taz <doubleminus>taz-output osm_taz.xml <doubleminus>weight-output osm_taz_weight.csv <doubleminus>processes 1 <doubleminus>poly-output buildings/osm_buildings
-->
<tazs xmlns:xsi="http://www.w3.org/2001/XMLSchema-instance" xsi:noNamespaceSchemaLocation="http://sumo.dlr.de/xsd/taz_file.xsd">
    <!-- id="all" name="all" -->
    <taz id="all" edges="26099161#0 -233394032#2 -25805438#1 30610466#1 -122939233#0 28321719#7 -159820358#5 449592464#1 541887704 -318458729#0 -184405824#2 -35980402#3 -26013140#0 -65526300#0 37933502 -87059113#2 -49863435 -158179941#0 124896762#1 179783114#0 25946023#1 104847812 351695956#1 122939270 822158297 -34750408#1 845935814 -370552767#0 -90771292#0 -145755542 -178153970#3 101374525#1 -56385305#2 371906833#1 104140758 151708456#0 -50814912#7 321022076#1 -143817800 318155232#0 781987042 189504102#1 991190913#3 -122936215#5 50371419#2 177999680#11 67332189#6 -233824695#1 159819717#0 508611286 -60253081#0 -35151579#1 -448316979#0 885209399 -50371420#1 -190644687 -749361838 27594732#6 508600630#1 75415075 259555853 178592412#6 587916317 902718327#1 -177863200#7 32045684#0 -749325666 -41050375#2 306417544#1 317450988 -178153970#6 -541887710 -317826056 -136504786#3 -597095271#5 370553588#1 65547476 -136427047#0 240431957#2 72618154#2 246492929#2 188952795#0 -193769383#0 370555590 -233824693#1 529906506#1 971255564 -189245718#0 101374522#1 899877562 110703841#0 124416773#0 -47001719 264471221#2 -99859887#3 -104140756#2 177194338 286127297 769384049#0 26203167 -28534933#0 -527411713#1 144784599#1 157403653#1 -790520659#0 41890718 915708043#0 233832346#4 -61453222#2 282721940 179776475 -127435989#0 178537767#0 -97417743#0 37334673#2 693049760#0 32045686 52110808#1 -748971451 -188952802#2 -72483679 52023069#0 178667568 -25945923#1 27273802#1 104494840#2 -178592412#1 189492569#1 749973932#1 49424394#1 927073457 189492571 33055444#2 -319724827#0 -288111069#1 338509093#2 177647989 158590867 136593388#0 218974049#0 -49424444#1 240431958 -210625994#0 49355235#0 99274794#0 -133023601 117863744#1 117862555#0 -107366419 -904854246 -233824687#2 36814275#4 264471221#0 -133021575#1 -597031474#4 237907240#1 25796746#2 37134021#2 26013146#2 30610461#0 749371619#2 321447537 37630651#1 -151592248#0 -143819111#0 -914729004#1 -86983954 -244477227 175425253#1 -79522244#3 970701034 248645889#0 240545276 -618580877 313931873#1 -865864564#0 177268504 178859826 233824703#2 -183905289#1 -101988388 -159511090#1 -26245574#1 178503651#3 -178153986#0 -748971453#1 692939129#0 480697658#0 155267326 193292107#0 36814275#1 341872603#2 -104494834 -85445844#2 -145745879#0 -922459127 -902712192 -25796748#0 -264469611#1 233824694#2 151704099#0 -319681914#1 159850124#3 -185008845 26013136#1 -104709807#1 -508611280#2 -172189511#9 128898030#2 107366422#2 -827721824 101988403#13 177999686#2 -30609398#0 448988817#1 -49863414#0 -36906143#2 36814275#6 35980402#2 177435143 -99711505#0 -126986339 52329429 219029410 210625049#1 177627074 -26013145#2 177999686#1 777032733 67332191#0 786172708 -370552765#1 541887709#1 -179784477#3 -240561442#3 878657806#0 899891900#0 37033897 -101390606#3 -793222102#1 122936210#2 128899604#9 -136491265#0 -101988403#6 -151704096 597031469#1 991190913#5 -30107201#0 -159819717#2 240561427#1 -240424797 146203672#0 48446554#0 -184446312 184446318#16 56472905#0 529932795 23696275#8 175070746#0 27467347#1 37411206#2 25805441#2 -541887714 49863410#0 -318458723 33140246 178157190#1 334781138#1 597031479 -50814912#3 203715255 928093775 35003540#2 177984382#9 -154001132 881119908 -155267326 970087235 -151585862#2 49424444#3 178678827#0 -597095271#1 117862554 25805424 -159190117#7 306556586#6 -188952802#3 -692934790#0 348771448#1 24563734#0 -52329443 190486444#1 -177194348#5 -30610460#1 -136427051 527053553#0 597095271#4 -133186943#2 79034673#2 -23696275#12 -971255561 -66758072#1 -683059754 -72501224#12 136061929#9 480697657#1 -526624514 205281694 -749325665 -205337293#1 -274995665 370555586 117862557#0 -338509093#2 290567733#3 -30610460#3 548084683 -128888476#0 -37334671#0 97421696#2 37214772#3 -233150005#0 -143323757 -274995667#1 -321426018 772117635#0 72501495#0 -155316858 92469485#1 -28321719#4 -136491277#0 899903967 -682841361#1 -136521798#1 105592740#3 38292210#2 178592412#1 370724062#0 -899903968#1 159818666#0 200297313#0 159818666#4 -325377870#5 249928183 326037423#1 746879589#2 127563870#5 67332188#0 -25945927#1 -157253920#1 290567733#0 -318004762#1 126992242#3 128896381 -60253084#2 -33055444#0 306417549#1 -246492929#1 -60253088#5 275348780#3 -178592412#3 318155232#1 -25945948#1 -49770589#1 -101390606#2 184446316#7 188952809 240545272 321421861#8 -35980406#1 179776090#0 177435144 -130870039#2 -24563734#2 182685722#0 79034673#3 -26222421#1 181623918#2 157539099#2 321421862#5 -69222116 151585860#0 -834181518#0 -49424444#2 -136061929#2 172189511#5 124416783#0 51569302 -37033884#9 306419995#2 480697656#1 -928080764 -52329440#1 219596205#1 -834181518#1 99728622 136061929#8 -79522249 -512591040#3 179089149#1 -151585859#6 -23696275#17 -26013139 -25805459#0 25945925#1 -56473366#1 67332189#7 169954313#1 -178153993#3 179779560#1 28321864#1 845855186#4 -79034673#7 101988403#1 50371427#2 67197180#5 -105197701 85445843#1 -971163896 -100622984#0 240545267 104667479#0 30610470#4 279126936#0 126992242#1 443014582 94790135 177999686#3 50463836#1 -218974053#0 321447539 105197667#0 291223660#0 92469480 172189511#12 179783114#2 442603816 -151592248#7 48808654#0 904854246 264471225 -144784601 -117862557#2 -151592238#0 60253090#1 85314588 749682882 -151590005#4 185008848#1 177647987#0 -159954700 104962128#1 -246494603 56385315#1 -146203660#0 127435997 -442603821 32045693#2 43406177 56366912#0 -606774247#2 878657806#1 -23688920#4 60739179#0 127529206#3 -407287639#0 264471221#4 -60253082#0 -597031472 104668976#0 177999681#5 85445806#1 -693045249#1 39832168#3 -172189511#5 190486441 -205336913#0 -155267325#0 -61454717#0 -845945154 219029414#2 41050922#2 290567720 140124288#0 -136491280#1 52329432 136491265#3 189504095#0 -240561442#1 -25805471#2 -136593388#1 -108448592#6 356469954#0 -23696275#14 61426196#2 26222157 -279126936#0 -28190428#2 184630311#3 -178154056 159949969#0 -37630653 26099163#2 -27273765#4 902040675 136504787#0 -288111069#0 155269598 35980404#1 -334781138#1 25796751#0 -69222120 25805471#0 -160451000#4 30610465#0 -178153981 -25796744#2 210625050#2 420323645#0 49863410#1 28190428#0 286110847#1 189043314 43720584#1 -319724827#1 -61454714#2 25945944#0 26099176#0 60417012#1 -127563869#3 321421865#1 -233150005#2 108448592#2 127993288 175418945 178153971#1 -26222421#0 275348780#5 81754834#0 -205281692#2 177194348#10 -177229635 -37134021#1 812514813 25805429#6 53196612#0 290311806 184446316#5 151590004#1 178157190#0 370723019 190904362#5 177999681#0 177229636 43406175#1 37033884#6 -124896762#1 -128897283#0 -37033890#6 321022076#2 -304425249#0 -79522247 25805460 25805449#2 34160316 -146203672#2 -127529207#1 387476689#0 -190486444#1 -606774247#0 508611275#0 116196031#4 207516647 -49424461#0 72483670#1 179966200#0 193292107#1 -65554345#0 72984812#1 -902712193 148238402#3 -159818144#2 -188952800#1 177863194 178153987#0 306417543#2 -342477494 -159820786#0 -205336913#2 29309489#6 966853569 -597031469#1 101988403#15 127529157#2 27594732#5 597031490#0 -749973932#0 159866462#7 512766530#0 341872603#0 282705127#1 -35980405#3 655079720#0 37033889 886688905 -291223660#2 -28190428#0 -624257790#1 127727144#3 -67197179#1 -49424457#2 43720584#5 90771292#0 -282706458 233824687#1 480697659 -178503644#4 151614786#0 50132165#2 50071472#2 -159956782 145745877#1 -35980403#3 -50371426#2 -60253092#2 24563734#2 -133419656#1 845945154 159866451#0 -742003256#1 117862557#2 227318270#0 -61453222#3 886688635#4 175256615 -597031476 -319883629#0 23979725 -25796743#8 -184452796#4 72511424#1 25796743#9 177999686#4 134994704#0 155316861#0 -145763715#1 136614078 -61454717#2 865864564#0 -136491273 26205480#2 -749682882 -321421867 692934791 -30610461#0 -318004758 -90771292#2 177194348#11 177863200#3 178537766 175426178 799610945 370556895#2 679688944#2 127988753 313931872#0 207516629#4 52329436 178153971#2 -27273779#6 42019668#1 189492577 746879594#2 -246494605#1 85330161#1 105592740#4 62234722 508611281 -288887623 184405824#0 -889135559 -159949969#3 -318085257#0 159954695#2 175425253#0 264471222#1 653049134#0 157537322#0 -749969121 56385317 -318085258#2 -210625994#1 -34315031#0 175256614 -151592931#0 25805442#0 104140750 -37134021#2 -30610460#0 179825990 23979551#0 188952818#1 151592929 175418943 23979555#1 56473369 -41050375#10 -184452796#2 -104709794#2 157539101#1 154235341#1 184452796#4 -85445845#0 130870039#2 244486738#0 188952797 -218965109#0 900963648#2 177647987#1 127727990 264471219#2 -66758072#4 52023064#0 385107326#5 104494823#6 212112831#1 26246581#6 178537771 185007301#3 537585301 177529430#0 -34203641#3 49355237#1 370555583#6 799610944#1 -175256601 -179784477#1 65547464#1 37630653 26013137#4 37335621 107358283#1 264471226#1 971255567 -679688944#1 42019673#2 140907997 -205337055#1 133419656#1 692934790#0 -61453222#1 43406174#0 48808659#2 159820784 443001709#0 72618154#1 -133082815#1 179826002#1 233150005#4 885495598#4 127567620 746879591 -189492574#0 26013146#4 40156606#4 -136513583 159956783 -155316861#1 -205337189 -28321719#8 -37033896 23554734#4 97417743#1 -189492569#1 35980404#2 145745882 85328218#2 -48808659#0 26099169#2 79522244#2 107358281 -151592248#6 548084685 840008598 -32015958#0 -117863744#1 -61453222#0 -178503663#0 178262240 218974053#1 233802121#2 -122936210#4 184446311#1 -205281694 -30610459#3 205337055#1 26013136#2 -60253095#0 122936215#6 37134020#1 105014788 104847807#3 526337187 -25945928#1 -682841358 151580852#0 -188952811 306419995#0 -290567733#3 177999681#3 -462191391#1 180559631#0 306427019 -189492569#0 -512362204 -734110226#0 -282705795 -290567721#0 127563869#0 -240657347#0 -107366437#1 200313016 885495600#1 -645889380 682841356 105197685#0 -189504095#1 384041749#0 34160113#1 157253918#2 159954689#1 23688892#0 -370552767#1 -49863414#1 177194348#13 -70674499#3 -512766530#3 -26013131 874445208#1 -207516642 -155316860#2 -179783113#0 587916316#1 902040674#1 159818144#2 181190298#0 241913078#5 207516654#1 -23688920#7 -184405824#3 240561428#0 -845855186#1 60253079 184446319#4 -65547495#0 26095460 101371623 68030120 140124288#1 541887706#2 321047096 -488691617#2 146724017#0 -50371419#2 233150002#2 26013134#3 160012030#1 47001463#4 -151585859#1 -143819121#0 790167310#0 86983522#1 178153981 -189492572 155316860#2 900963648#3 233824694#0 43721054#0 23523956#1 -49331645#3 760434352 264471228#2 -177999678#2 -37033889 -35151581#3 -60253082#4 -97417742 43721063#0 443014583 321421868 85131437 -602705367 286110833 845945159 25945934 653049135#0 151592928 154751812 357232318 177999681#6 182596954#1 526107225 178302494 889122979 -140908000#1 177999680#6 205336913#0 240561428#1 264471217#1 337333849 -874459869 -175070740#0 -805854820#1 50463837 189043316#1 -151707574 179779562 -127727139#0 -259702035#0 -26095460 -245858167 -902659463 37033884#3 91668167#1 122936215#5 537585302 -384041750#1 928187994#1 -179966411#0 -157539099#4 181713522 155269591 -157244818#3 65547471#1 -27594824#2 233150005#1 41890721#7 178516241 -233827760 178600215#1 104847807#1 337338965 -443002919#1 -151590008#1 157244815#3 306418874#2 348500459 158878659#1 105436565#4 136427045#1 749326167 160011978#1 -110703841#4 67332191#6 179779560#0 529906507 525496196 -319479641#2 -25796740#3 -E19 -105592740#7 -233824694#1 193769369 -387476689#0 -151704099#3 -79034667#0 130870037#1 177984382#7 47001463#8 209649713#1 286125148 181623918#1 -26208621#0 -321426016 159866452#1 -281243615 127727148 151590004#0 -141189100#1 -319681914#0 52023069#2 72501911 -178592412#4 26013134#1 66758072#4 151585862#0 -317948697 321426016 -443001709#0 -136521798#0 385107322#0 37728684#0 -488691611#1 -52110811#0 -126986338#0 -306419995#0 -420331992 -415128362#0 -157244815#2 -521595188 -279252405#0 325187141#0 971255566 -25805465#1 67332191#3 37193455 512766530#3 -35980403#2 217946416 970087234#1 597031489#0 -306420037#4 -319688043#1 -127993287 -71408584#3 370724062#10 184446318#3 449592474 -177194348#2 -556718380#0 -25946023#0 321426020#1 -127563869#1 320180565#1 30610459#1 -127563869#0 -159039372#1 60253095#1 30610462#3 -37728684#0 293245612 104852905#1 -178153991#2 -237905757#0 -304425250 49863414#1 321047093 50814912#3 190486437#0 26246581#2 -749371617 35980403#3 291223660#2 -760113835 172189511#10 319724827#0 -928263145 25945937#0 -188952818#1 -371178056#1 157244815#2 -29309488#2 -178537770 900157907#1 -177863204 318085257#0 -122958362 -151592934#1 184446318#10 25805422#0 -136593389 915075286 279252405#0 -136061929#9 122936162 -749326167 52110815#0 -108448592#0 -30610464#0 85445874 -162004565#2 175277202#0 25946022#1 -30610459#1 779511093 169999459#0 25945928#0 66941720#0 -182210566#0 -207348345 -26129514 -36906143#1 -661124495#1 155270314 -107469181#0 -746879594#4 -101988403#2 104847815#1 -227318272#0 370724062#11 184446318#12 371909730#0 136504782#1 -122936215#8 37334669#3 26013145#3 240561441#1 237907990 -85256467#1 23554716#0 -49424477#2 -157539099#1 885535922#2 41050375#9 -233824686#1 -27273779#4 -53196611 34203641#2 -43406177 827721826#1 143817797#5 595999978 177984382#8 179776104#3 -30610461#5 51569304#2 -177341937#2 60253085#1 -155296380#1 -189504105 -49424455#0 101374524#0 290567726 154001132 976312449 -306420037#1 -49424445#1 246494605#2 26013141 902733546 241913077#1 177999681#1 126994906#0 264471217#0 34750079#2 512591036 26013148#1 146964802 143819111#0 -246492156#1 -356469954#3 -184630311#3 56385301#1 -390856426#0 -47001463#4 -127435989#1 233824700 72618154#3 37033886#1 33055444#0 52110802#0 -175256599#0 -155267323 32045687#1 -541887701 177304398 240561421#0 -27273765#3 -319911199#0 123587958#0 319911202#0 -200313022#3 178153989#1 233832346#1 52110808#2 -588791905#3 -52110814#1 -48808659#2 304425250 200325406#1 -175256608#3 34283523 -92469477 37033891 203715259#1 -177999686#8 190486444#0 -25805472#1 512766524 35980404#5 41050373 177194348#19 136427041#0 189492564#2 -25805456#0 218965108#0 -746879591 321047095 51031330#4 -177999678#1 -290567732#1 -178153991#1 85445864#0 37334673#1 -125515158#0 -104146912 101374526 -123587958#1 144784599#0 306556586#3 -182027937 25805469#2 -597031479 50463833 178593058 -50463836#0 -90771292#3 368740775 -60253085#2 -200312999#0 54225653#2 886688635#3 65547471#5 -40156606#5 159819717#3 25805456#4 34315290 420325115 -185914154#1 157403655 -72501224#3 -179826006#3 -597031491#1 179776068#0 48446551 -60253082#3 85083298 28321781 -233155179#2 -27467347#0 65547495#4 286125139#1 -25805449#0 443014119 -452318945 107366422#3 -878037941 -734110226#1 -43406180 60782851 914628970 179833533#0 219029416#1 217993448#1 178859825 -189043325 246492156#2 508611300 181713520 -49424461#1 -266888337#3 -237905763#0 -420331993 104140748#1 -321047088 -928290474 105014790#0 26246584 123587958#2 56472905#5 28321808#1 746879589#4 407287590#1 37630652 -178153976 -151708458#0 -205281692#0 217960477 178265426#2 95234067#2 -443001709#1 -32045687#0 -218974051#1 61454716#0 233824703#3 160451001#0 420325119 -178153971#3 321426002#4 39391889 160012030#0 -33055444#1 -30610459#2 -141191240#1 -233832346#0 256186558#1 -151585859#4 -684910609 184630311#2 -56355217#1 32015962 159954695#0 189492567 136491275 -37334675#2 -306418874#2 -830000331#0 831278230#2 32063640 136061929#6 37334671#0 157253917#0 49355234 50076379 -902659467 233791129#1 104709807#0 -127988753 -233824696#1 -205336913#1 -288207902#2 182685721#0 65526294#0 -618580873#1 -25805464 -130870037#0 -200313022#16 840009611 -181623919 49863421 178153979#0 159866458#1 -356469955 180559630 -279126939#0 -37630651#0 123587958#3 -32015723 -178153984#0 -178592412#9 -56366918 -190486451#0 -143817797#7 -26205501#0 -102868609 93980011#0 597095271#2 233824693#3 90771292#2 -101988386#1 319707765 -181623918#5 -116196031#2 25805463 -508640726#0 -37033900#1 508600646 159866405 52110807 25805425#0 275348780#2 279126937#2 -184452801 845855186#2 50371425#3 178537767#1 101368446#0 -65411786#1 -157394894 49424456#1 -104140760 -207516655#1 -285341486#1 25990515 -49863433 157535157#4 -25946023#1 60253088#7 -104665538 237914369 -184405822#1 104140756#0 178503659#1 115675470 72483677 -597031491#2 122936210#1 -827721826#1 -124416776#0 -597095271#0 244477228 288208154 122936181#0 -189043346 25805461 -41890716#7 -93980011#0 902659466 240612225 237905763#1 -50463828#1 35151583 -26099177 37334675#2 143323751#3 -184405824#1 217993449#0 53196613#1 306417548 72502476#1 -25945925#4 49424377#0 49863409#0 -175256599#1 -237914369 188952802#3 177269748 -70018884 178153973 306419995#1 -25796745 319681914#1 -50371426#1 886688904#0 E19 237907239 489831140#0 227910518 321032828 321022100 -40156606#2 885500569#1 52329430 653049133#1 25945923#1 189043313#1 94790137 -101988403#11 -245858164 155316860#0 -179776090#2 179776103#1 -790520659#1 146203660#0 -102868617#0 790520660#0 116196031#3 -282717622#1 51266159#1 146203667 277439742#0 -107366422#4 -371176441#1 -175256612 -143315082#1 102868617#0 27594824#2 47001463#6 321022115 65411784 -463476259 65155470 -37134024#0 25990582 512766525 172189511#2 -178153989#3 41050371 261919662#0 23554734#2 306420037#5 304425249#1 25796743#0 143819121#2 104962128#2 -915708045#1 -105197694#0 -178208890 -85445867 -145745873#3 219029418#1 217960733 217993446#1 27594824#1 -321426002#1 415128365#2 -79034673#5 189492564#3 26205495 -597095268#0 177791484#0 233824694#8 -794259386 -159954695#0 85328218#5 -233394032#0 26013145#0 -217951320 -136504786#0 -133021575#3 219514465 50371426#1 -28190428#6 -827918526 865864564#1 -318004760 35980403#6 -159954689#2 -50071472#2 -36906143#3 -37335621 -56357596 -34160113#9 178153978#0 -49863434#2 -179776092#3 -100655982 128894641 53196612#1 -282706166 -159818666#3 184446318#1 25796746#3 240545263 -159982580 42019984 508611279 -23696275#8 -963903187 26013128 597031489#1 133569447 448994169#1 283502279 -116196036#2 177654531#0 32045680#0 -306419995#2 486778716#0 902733553 290567713#6 -25945933 233394032#0 -65547495#1 157571141 845935816 159866462#0 52329437 34315267 38427883#3 -876378828#0 290567714 -143323751#0 -177229634#0 179776095 -37630654#3 -133021575#2 72483673#0 34160113#14 489831136#0 286119049 -143817797#5 212112831#0 321421862#6 -371176439#2 -49863411#0 24013835#0 141189100#0 30610461#8 26013133#2 -127435989#4 25805458 97421696#0 -309719296#4 179776068#4 264471229#2 -32045683#3 -85314635#4 35312958 128894638#0 -157124750 107733518#1 -52110813 -26013145#0 101374521#2 290567724 70881449 -596012374 -541887702 143817797#2 67197180#2 101374534#1 -49424443#0 -200313022#13 -141191240#0 264471230#0 37334669#2 -151592252 182210566#2 -179776068#2 -146203660#1 -159819715 264471227#2 30610506#1 25805429#0 488691611#0 159866438 133567552#0 -104494840#1 -582633436#0 286125146 72501224#12 65411786#1 241913078#0 306427018 -107958241 159820358#2 217962182#1 -50814912#1 264471222#11 49424462 104847815#3 175256608#1 35980404#4 902712192 -51569302 -37033901#0 -49864422 127563869#2 -318004765#1 23523941#0 37334675#6 -127994109 -72618154#1 141189100#1 842387668#0 -37728685#5 49424455#1 127727146#0 115849592#1 105306241 149735484#1 -233824689 49424448#0 157539101#0 32015720#5 184452796#6 65547455#2 99859884#2 188952802#1 -124416773#0 -56473366#0 -67026566 61453222#0 43406176#3 -370554001 264471222#12 415128365#0 -23696275#3 26013149 512766527#1 -117862558#3 794259386 321421865#0 -143323756 -143315101 178302492 -146203671#0 159949969#3 127727150#0 177194348#3 326037548 337324755 319688043#2 23554734#1 -928264139 261919660 -277439742#0 25805445#0 -133419656#0 767774334 512362204 321421861#7 143817797#4 99728616 178593057 23979552#0 151592238#1 -50132165#0 128899604#6 -177792743#1 133021575#3 146203669 -30610461#6 -541887713 -178503651#2 -101374534#1 29309489#3 -50371428#6 -25796743#1 104709800#3 -531081828 126992225#0 -157253917#1 99728618#1 56472905#6 143819111#1 -237907240#0 179966200#1 370556895#1 -101374524#0 488691612#0 -734110851 30610460#2 -279126937#2 834181518#3 -25805438#0 -43406172 -746879589#2 971173433 28321864#2 128899604#5 26099168#1 -204019257 961116808 -179779558#2 37033890#4 34160113#9 -28321864#0 290567730 900960384#0 -37193452 -313931872#0 407287593 -179779558#0 -52023066#1 290567727#0 -403451137 -318085258#0 61426196#0 67197180#3 -120657128 -876409835 -25805456#4 -185007301#2 321421862#3 50814912#7 -105197723 -72501224#5 -245858165#1 189043326 305884619 845945155 749973932#0 136504779 -37033888#1 233826140 181190297#0 -49355232#0 -179826006#1 -67332189#0 -145745877#0 127435989#2 184446318#11 27033037#2 -200325409 61453222#4 42019667 306556586#4 370723018#1 159980918#0 -233824694#8 233824686#0 -60253079 508611278 233824688 -35980402#2 182999771#0 -127657355 -319724823 72501224#5 -60253081#1 159950717#0 -104494823#1 67332191#2 99274793 151702609#1 -321047093 772117635#1 -508611274 327405747 175256599#1 319479641#0 -233832339#0 30610461#1 886688635#12 -177304398 -159949969#1 -41050382#2 -306417544#1 178593062 50371422#0 184446311#0 -172189511#7 233824686#1 -52023064#1 306418017 154751888 41890719#1 274995667#2 597031474#1 49424445#3 233824694#10 319883630#2 49424445#1 -290567724 -151704099#1 878419501 291223660#1 840007661 790167308#1 25805429#1 -189043344#0 -34749590 -101368435 177999686#8 85445829#1 104665539 415128365#3 -50132165#1 29309489#4 205337293#1 85131428#1 37134019#0 177999686#9 -180555830#0 -205337293#0 -746879592 -177863200#2 -279252405#1 -541887711#1 133419651 4683013#1 -541887715#0 50371428#5 -309719296#1 -25796746#3 178153985#1 72477865#0 -61426196#2 200312999#0 143315085#0 -692939129#1 595999976 -279252245 -179776475 -188952802#4 371176439#0 -122936215#4 -52329439#1 -50371428#4 124416781#0 159866462#5 157539099#4 41890715#1 -41890721#5 -827920129 -124896762#0 101988403#14 -29309489#4 233827759#0 30610469#4 90771296#1 125515155 929478145 128899606#0 143315085#1 52329439#1 -159820786#1 -159511088 136593389 -25805429#1 842387669 145763715#0 85314550#0 -104140756#0 -181623918#3 371176441#0 136513583 41890716#6 37134020#0 -233824694#11 -587916316#1 136590403#2 -72502412#3 -104140764 -179826006#2 -143315082#2 -233791123 -251488305 -159512293 146724496 37033898 143819121#3 104140755#1 -151592933#0 179783117 321421855#1 306418877#0 -25805471#1 -157253918#5 177863200#6 -692939123 -122939270 860437804 -67332191#4 370723017#3 191584961#0 148238402#0 -101988403#7 319479641#4 597031474#3 240561454 -25945929#0 -306420037#0 172189511#1 204019257 105436006#4 155270318 26209973#3 -30610462#1 190904368#0 125510000 128341584 160015689 834181518#1 -117862558#2 -116196031#1 -122936215#1 -100655989#1 50371418#0 -680402431#2 179776104#5 143315101 233824687#2 -178153972 -970701032 217993449#2 61453480 37728685#1 32045683#4 -597031474#0 117862558#2 30610460#0 319688043#0 -37033887#4 178118336 -56473366#2 -37630652 -151592930#0 56472905#2 -185009513#0 126984898#1 264471222#6 32046504 -151707576 -179779560#1 -40156606#3 692939125 -136427041#2 50071472#1 692939129#2 420323645#1 -28190428#3 182852947 971255563 -155316860#1 -35980405#1 23688892#1 136593388#2 79034673#1 -334779667#0 -37033893 171049828 -101374530#4 26013137#3 122936210#4 -177435144 -154235342#1 -151592255#0 233150002#0 -124416766 -85445836#0 157535177#1 928263145 -237905763#1 885500569#7 -25945928#2 -25945952#1 128894642 133036465 182596954#0 -748971458#0 37069789#0 29718951#0 -182210570#1 313931873#0 136593387#0 42492276#3 -356469954#1 -748971454 177529429 -185914154#0 -102868617#2 -115882209#0 -140908001#0 175256618#0 65547484#0 27033037#4 126992225#2 128888447 26246581#0 -179783114#0 37033887#0 -100655989#0 175256601 179631747 -582633433 -321421862#4 -183905289#0 -49424452#1 178593059 900157908 131791165#5 -384041750#0 -34160113#2 -140124289#0 -30610506#2 -178826292 -136427041#1 179776102#1 -101374531#1 189504105 -281243613#2 -177863200#5 -41890722#0 508611284#1 72480163 -38292210#0 -116196036#4 -159980917 -128897281#1 -217951318 143315082#1 928492345 -322758562#1 -246494607#2 181190297#1 178592412#8 -370555583#6 179776096 -105592740#4 -200297314 -53196614#1 -81754833 -49424444#4 830000331#2 -915708043#0 -105436565#1 748971458#1 23554734#6 -144784599#1 140908001#0 489831133#1 -778757100 -25805429#5 287276473#2 264471220 -52110803 104140752 124416783#1 190486437#1 217993448#2 26245574#0 136427041#2 100655982 127529157#0 159866443#1 151585859#6 104140757#0 140907999 184446316#3 189043317 -60253087#0 25796740#2 334779667#1 827920915#1 -72483670#1 -158878660#1 -32045689 -26013134#3 -127727990 101374534#0 143817797#8 -371176439#0 -159850124#2 41890721#1 50071472#5 30610463#2 370555587 178433432 -127529207#2 -183906704#2 -157537321#1 28321808#2 72498747 370555584 175538057#1 -321421861#1 777032734 -143819111#1 300644006 -61426197 -52329440#2 178503659#0 233824703#0 -200325406#2 -50371423#0 -47001717#0 37033886#2 99728624 -321047113#1 264471222#7 60253090#0 26245576 177341937#1 -136513585 -541887715#1 -588791906#1 244486735#0 61454715#1 -240545275 -244486735#3 -60417011#1 188952810 207348347 -653049135#0 107469181#2 -27273779#2 -178592412#0 -133419646 748971453#1 41890722#1 184446318#6 155298708 306415012 -25946022#3 -65411786#2 26222421#1 -370555583#5 178859823 -37334673#1 -101374523#1 -127657356 -127435991#1 -25805446#2 126992236 104709801 -734109548#1 41890720#1 159820786#1 26222421#0 172189511#11 -52033166 -105436008#1 645561019#1 -597031487 151592248#4 60253085#0 122936215#8 159866442#1 -157403657 159822060#3 -321426010#0 -25805452#2 -41890716#2 -49863409#1 -241913078#4 281243616#2 -227318270#1 -178153971#2 254600529 122936215#4 -624255419#0 -259555853 39832167 60253092#0 886688635#1 30610461#3 -27033037#0 -185008848#0 -177229634#2 -749376161#2 -48446550 72501224#2 -177999678#0 35980403#1 86983522#2 -624257790#0 -928046945 -790259418 190644692#0 -291627152#1 371906832 37631720 160011978#5 157244818#2 53625303 50371421 126992227#1 23688920#7 -178153993#0 264471222#8 34160113#17 -159818144#1 155297402#0 32045692#1 127563881#2 -25990517 -30610461#2 26246581#5 -207516641#0 -25805456#3 126992241#0 107366414 830000331#0 -182685722#1 -34160113#4 42019981 67332189#5 248645889#2 54225653#0 902716316#0 -86983519 341872603#1 104140756#2 -177999686#5 212112848#2 489831136#1 178153974 -25805451 159819717#1 597095268#2 -307276514#1 282706166 -749371619#1 -32015724 -101374538#1 -889133807 101988403#7 246492157 -338509494 597095271#1 218974052#0 692939127#0 -133419651 48794916 127563870#2 253084867 240561458#1 65411786#2 -179966411#1 49331645#3 -556718380#1 -25805449#1 -189492564#4 -182210571#1 384041759 370723017#4 108982490 72501224#8 -179776092#0 157124727 37033890#2 178826289 53196613#0 52329442 -37933504 -41050922#0 361249393#1 177863200#5 -126992227#0 -178153989#1 179631752#2 32045693#3 23688892#3 -155297402#0 -52329429 541887706#1 902712190#1 60253085#2 -41890721#4 179631751 -865864565 -49424444#3 -105197697#1 -327128527 233150007 181190295#0 -72501224#11 -746879590 179783113#1 370723016#1 140124291#1 -157537322#1 749973929 -746879594#3 -195601652 -26205512#0 136061929#1 -151592934#0 279126934#0 26205512#2 122936210#3 131791169 -39391890#2 -159954689#1 104764937#0 -153977629 179826006#2 679688944#1 -36814275#3 -151592933#1 -309305197 -34160115 172009563#0 -42019666 101368449#1 99711505#4 -159039372#2 -26013148#0 105014798#1 85314635#2 237907240#2 49424450#0 -104709794#3 -902718327#0 -885495599 200330207#5 240545253#1 -41890715#1 28321719#5 -915075286 -149735484#1 448316979#0 49863425 -30610459#0 360997242 56472905#11 -48794917#1 -748971456 -319707766 26205496 -50371419#1 -36814275#6 189271952#0 136491265#5 370552772 102868609 49863434#0 -24577510#1 -49355232#1 -E20 266888502#0 207516642 -175256608#4 508611302#1 -104665539 -160451000#3 23688920#2 -878418650 -749326168#1 32045691#0 251488305 -27273779#1 50371425#4 -179779562 237907985 -178153970#0 -321426010#1 136491271 -159866433 182852948#0 -306414587 -184446311#0 -85314635#2 -928091039 233824695#0 140908000#1 33141498#0 39391890#1 970661399 -341872602 370555583#5 104709794#3 127994153 72484147#0 60739179#3 -321426011 318085257#4 -179779564 -136491269 151590005#2 49424443#0 541887699 -70013368#0 321426002#5 87059113#3 177194345 321426017 -101374534#0 -188952827 -157535157#0 827717810#0 136491265#1 145745877#0 -133023603 692934790#1 102344315 -749973929 317981253 117862548#0 -23696275#11 -334781138#0 -889113758 126866115#0 177984382#6 -175256608#0 233150005#0 33139932 -68030120 37630656 48808659#4 -318085257#2 512766529#2 -900960384#1 -443014581 -900157907#0 -158878660#0 177194348#20 128899608#0 -29074526#3 -200330207#2 169954312 -49424444#7 -914628970 264471222#13 26099156#2 290567725#1 177194343 177186235#0 178826292 85445864#2 219029416#3 -159850124#0 -136590403#0 70013368#0 -182685721#2 -26013133#0 -306419996 -55892771#4 133036590#1 60417011#0 508611305#0 85445844#3 -140872663#1 -151590005#3 26222154 37033894 160451000#4 -49424448#0 -157539099#3 28321719#3 -72498436 127435989#0 92885904 157535178#1 157539099#1 -172009563#0 354673680 684910608 101374520 30609398#2 23688893#1 508600643 90608597#1 145755544#1 -72480166#0 52329440#4 190904368#1 85328218#3 197522699 587923165#0 41890721#4 387404598 -25796751#0 885500569#4 200325406#2 -52110811#1 -816200047 885500569#3 -52110814#0 29309489#0 86983961#1 307276541#1 122958361 313931872#4 26099169#0 -682841356 25805443 175070740#1 159296361 -318085258#1 -233150006#1 441650377 -197638009#2 -177863200#9 -175418948#0 160088789#0 -338509093#0 136513584#3 172189511#15 178503644#2 443014120#3 -178153971#1 49424457#1 -286125143#2 -189043329 25945925#4 175422505 -99711505#4 512397009 317455908#1 -41890716#6 159950182#0 -72501911 189492563#1 -66758078#2 181623918#3 -179966411#2 -597031464 527053553#3 154751819 -189245714#2 -637497503 -175256616#1 29309488#1 -179631748 101988403#0 -52329439