<?xml version="1.0" encoding="UTF-8"?>
<!-- generated on 2022-03-01 11:36:04.657331 by generateParkingAreaRerouters.py UNKNOWN
<configuration>
    <min-capacity-visibility-true value="50"/>
    <max-distance-alternatives value="1000.0"/>
    <max-distance-visibility-true value="1000.0"/>
    <output value="osm_parking_rerouters.add.xml"/>
    <parking-areas value="osm_complete_parking_areas.add.xml"/>
    <sumo-net value="osm_edited.net.xml"/>
    <tqdm value="True"/>
</configuration>

-->
<additional xmlns:xsi="http://www.w3.org/2001/XMLSchema-instance" xsi:noNamespaceSchemaLocation="http://sumo.dlr.de/xsd/additional_file.xsd">

    <rerouter id="101569245" edges="65526300#1">
        <interval begin="0.0" end="86400">
            <!-- in order of distance --> 
            <parkingAreaReroute id="101569245" visible="true"/> <!-- dist: 0.0 -->
            <parkingAreaReroute id="1101569245" visible="true"/> <!-- dist: 382.4 -->
            <parkingAreaReroute id="192469475" visible="true"/> <!-- dist: 390.6 -->
            <parkingAreaReroute id="192469476" visible="true"/> <!-- dist: 390.6 -->
            <parkingAreaReroute id="151708460" visible="true"/> <!-- dist: 416.3 -->
            <parkingAreaReroute id="92469479" visible="true"/> <!-- dist: 445.6 -->
            <parkingAreaReroute id="92469475" visible="true"/> <!-- dist: 479.9 -->
            <parkingAreaReroute id="92469476" visible="true"/> <!-- dist: 479.9 -->
            <parkingAreaReroute id="192469479" visible="true"/> <!-- dist: 546.0 -->
            <parkingAreaReroute id="1151708460" visible="true"/> <!-- dist: 586.1 -->
            <parkingAreaReroute id="511285530" visible="true"/> <!-- dist: 826.0 -->
        </interval>
    </rerouter>

    <rerouter id="101569247" edges="148238402#0">
        <interval begin="0.0" end="86400">
            <!-- in order of distance --> 
            <parkingAreaReroute id="101569247" visible="true"/> <!-- dist: 0.0 -->
            <parkingAreaReroute id="441650376" visible="true"/> <!-- dist: 175.1 -->
            <parkingAreaReroute id="1101569247" visible="true"/> <!-- dist: 524.0 -->
            <parkingAreaReroute id="1441650376" visible="true"/> <!-- dist: 524.0 -->
            <parkingAreaReroute id="441651325" visible="true"/> <!-- dist: 560.0 -->
            <parkingAreaReroute id="1441651325" visible="true"/> <!-- dist: 593.4 -->
            <parkingAreaReroute id="126866129" visible="true"/> <!-- dist: 866.7 -->
            <parkingAreaReroute id="1190486454" visible="true"/> <!-- dist: 893.4 -->
            <parkingAreaReroute id="1126868701" visible="true"/> <!-- dist: 989.2 -->
        </interval>
    </rerouter>

    <rerouter id="104494838" edges="104494836#3">
        <interval begin="0.0" end="86400">
            <!-- in order of distance --> 
            <parkingAreaReroute id="104494838" visible="true"/> <!-- dist: 0.0 -->
            <parkingAreaReroute id="1179776106" visible="true"/> <!-- dist: 103.2 -->
            <parkingAreaReroute id="1179776107" visible="true"/> <!-- dist: 103.2 -->
            <parkingAreaReroute id="1179784479" visible="true"/> <!-- dist: 103.2 -->
            <parkingAreaReroute id="179776106" visible="true"/> <!-- dist: 154.0 -->
            <parkingAreaReroute id="179776107" visible="true"/> <!-- dist: 154.0 -->
            <parkingAreaReroute id="179784479" visible="true"/> <!-- dist: 154.0 -->
            <parkingAreaReroute id="1179783120" visible="true"/> <!-- dist: 593.9 -->
            <parkingAreaReroute id="25945935" visible="true"/> <!-- dist: 619.4 -->
            <parkingAreaReroute id="179646615" visible="true"/> <!-- dist: 660.7 -->
            <parkingAreaReroute id="1748971455" visible="true"/> <!-- dist: 685.1 -->
        </interval>
    </rerouter>

    <rerouter id="104709803" edges="902040672#0">
        <interval begin="0.0" end="86400">
            <!-- in order of distance --> 
            <parkingAreaReroute id="104709803" visible="true"/> <!-- dist: 0.0 -->
            <parkingAreaReroute id="104962126" visible="true"/> <!-- dist: 83.9 -->
            <parkingAreaReroute id="3426396140" visible="true"/> <!-- dist: 199.0 -->
            <parkingAreaReroute id="120116161" visible="true"/> <!-- dist: 340.5 -->
            <parkingAreaReroute id="35151582" visible="true"/> <!-- dist: 489.4 -->
            <parkingAreaReroute id="1120116161" visible="true"/> <!-- dist: 599.3 -->
            <parkingAreaReroute id="1127727988" visible="true"/> <!-- dist: 662.9 -->
            <parkingAreaReroute id="127727989" visible="true"/> <!-- dist: 671.8 -->
            <parkingAreaReroute id="9034987957" visible="true"/> <!-- dist: 671.8 -->
            <parkingAreaReroute id="135151582" visible="true"/> <!-- dist: 693.3 -->
            <parkingAreaReroute id="1217998167" visible="true"/> <!-- dist: 703.9 -->
        </interval>
    </rerouter>

    <rerouter id="104962126" edges="902040672#0">
        <interval begin="0.0" end="86400">
            <!-- in order of distance --> 
            <parkingAreaReroute id="104962126" visible="true"/> <!-- dist: 0.0 -->
            <parkingAreaReroute id="3426396140" visible="true"/> <!-- dist: 199.0 -->
            <parkingAreaReroute id="120116161" visible="true"/> <!-- dist: 340.5 -->
            <parkingAreaReroute id="35151582" visible="true"/> <!-- dist: 489.4 -->
            <parkingAreaReroute id="1120116161" visible="true"/> <!-- dist: 599.3 -->
            <parkingAreaReroute id="1127727988" visible="true"/> <!-- dist: 662.9 -->
            <parkingAreaReroute id="127727989" visible="true"/> <!-- dist: 671.8 -->
            <parkingAreaReroute id="9034987957" visible="true"/> <!-- dist: 671.8 -->
            <parkingAreaReroute id="135151582" visible="true"/> <!-- dist: 693.3 -->
            <parkingAreaReroute id="1217998167" visible="true"/> <!-- dist: 703.9 -->
            <parkingAreaReroute id="127727988" visible="true"/> <!-- dist: 745.8 -->
        </interval>
    </rerouter>

    <rerouter id="105020956" edges="286110847#1">
        <interval begin="0.0" end="86400">
            <!-- in order of distance --> 
            <parkingAreaReroute id="105020956" visible="true"/> <!-- dist: 0.0 -->
            <parkingAreaReroute id="200313027" visible="true"/> <!-- dist: 432.8 -->
            <parkingAreaReroute id="200313030" visible="true"/> <!-- dist: 432.8 -->
            <parkingAreaReroute id="44864790" visible="true"/> <!-- dist: 432.8 -->
            <parkingAreaReroute id="200313033" visible="true"/> <!-- dist: 484.9 -->
            <parkingAreaReroute id="1304004370" visible="true"/> <!-- dist: 744.5 -->
            <parkingAreaReroute id="1136607878" visible="true"/> <!-- dist: 834.6 -->
            <parkingAreaReroute id="384041760" visible="true"/> <!-- dist: 835.0 -->
            <parkingAreaReroute id="151705225" visible="true"/> <!-- dist: 839.2 -->
            <parkingAreaReroute id="151705230" visible="true"/> <!-- dist: 839.2 -->
            <parkingAreaReroute id="126868701" visible="true"/> <!-- dist: 937.9 -->
        </interval>
    </rerouter>

    <rerouter id="1101569245" edges="-65526300#1">
        <interval begin="0.0" end="86400">
            <!-- in order of distance --> 
            <parkingAreaReroute id="1101569245" visible="true"/> <!-- dist: 0.0 -->
            <parkingAreaReroute id="192469479" visible="true"/> <!-- dist: 234.3 -->
            <parkingAreaReroute id="192469475" visible="true"/> <!-- dist: 338.1 -->
            <parkingAreaReroute id="192469476" visible="true"/> <!-- dist: 338.1 -->
            <parkingAreaReroute id="92469475" visible="true"/> <!-- dist: 427.4 -->
            <parkingAreaReroute id="92469476" visible="true"/> <!-- dist: 427.4 -->
            <parkingAreaReroute id="92469479" visible="true"/> <!-- dist: 570.1 -->
            <parkingAreaReroute id="101569245" visible="true"/> <!-- dist: 632.0 -->
            <parkingAreaReroute id="1845945160" visible="true"/> <!-- dist: 778.6 -->
            <parkingAreaReroute id="1845945161" visible="true"/> <!-- dist: 778.6 -->
            <parkingAreaReroute id="151708460" visible="true"/> <!-- dist: 816.4 -->
        </interval>
    </rerouter>

    <rerouter id="1101569247" edges="-148238402#0">
        <interval begin="0.0" end="86400">
            <!-- in order of distance --> 
            <parkingAreaReroute id="1101569247" visible="true"/> <!-- dist: 0.0 -->
            <parkingAreaReroute id="1441650376" visible="true"/> <!-- dist: 167.8 -->
            <parkingAreaReroute id="441651325" visible="true"/> <!-- dist: 203.8 -->
            <parkingAreaReroute id="1441651325" visible="true"/> <!-- dist: 237.2 -->
            <parkingAreaReroute id="101569247" visible="true"/> <!-- dist: 412.4 -->
            <parkingAreaReroute id="441650376" visible="true"/> <!-- dist: 412.4 -->
            <parkingAreaReroute id="126866129" visible="true"/> <!-- dist: 510.5 -->
            <parkingAreaReroute id="1190486454" visible="true"/> <!-- dist: 537.2 -->
            <parkingAreaReroute id="1126868701" visible="true"/> <!-- dist: 632.9 -->
            <parkingAreaReroute id="1126866129" visible="true"/> <!-- dist: 653.6 -->
            <parkingAreaReroute id="126866130" visible="true"/> <!-- dist: 674.3 -->
        </interval>
    </rerouter>

    <rerouter id="1116196041" edges="-29309489#5">
        <interval begin="0.0" end="86400">
            <!-- in order of distance --> 
            <parkingAreaReroute id="1116196041" visible="true"/> <!-- dist: 0.0 -->
            <parkingAreaReroute id="116196041" visible="true"/> <!-- dist: 299.5 -->
            <parkingAreaReroute id="85328220" visible="true"/> <!-- dist: 686.7 -->
            <parkingAreaReroute id="1136607878" visible="true"/> <!-- dist: 707.6 -->
            <parkingAreaReroute id="341375739" visible="true"/> <!-- dist: 709.5 -->
            <parkingAreaReroute id="151705225" visible="true"/> <!-- dist: 726.4 -->
            <parkingAreaReroute id="151705230" visible="true"/> <!-- dist: 726.4 -->
            <parkingAreaReroute id="85445811" visible="true"/> <!-- dist: 732.9 -->
            <parkingAreaReroute id="1337523537" visible="true"/> <!-- dist: 752.5 -->
            <parkingAreaReroute id="136491286" visible="true"/> <!-- dist: 775.2 -->
            <parkingAreaReroute id="902735979" visible="true"/> <!-- dist: 786.4 -->
        </interval>
    </rerouter>

    <rerouter id="1120116161" edges="-104665539">
        <interval begin="0.0" end="86400">
            <!-- in order of distance --> 
            <parkingAreaReroute id="1120116161" visible="true"/> <!-- dist: 0.0 -->
            <parkingAreaReroute id="120116161" visible="true"/> <!-- dist: 201.2 -->
            <parkingAreaReroute id="35151582" visible="true"/> <!-- dist: 478.6 -->
            <parkingAreaReroute id="1127727988" visible="true"/> <!-- dist: 591.4 -->
            <parkingAreaReroute id="127727989" visible="true"/> <!-- dist: 600.2 -->
            <parkingAreaReroute id="9034987957" visible="true"/> <!-- dist: 600.2 -->
            <parkingAreaReroute id="127727988" visible="true"/> <!-- dist: 674.3 -->
            <parkingAreaReroute id="135151582" visible="true"/> <!-- dist: 682.5 -->
            <parkingAreaReroute id="1217998167" visible="true"/> <!-- dist: 693.1 -->
            <parkingAreaReroute id="104709803" visible="true"/> <!-- dist: 734.3 -->
            <parkingAreaReroute id="104962126" visible="true"/> <!-- dist: 734.3 -->
        </interval>
    </rerouter>

    <rerouter id="11244343173" edges="321047078#1">
        <interval begin="0.0" end="86400">
            <!-- in order of distance --> 
            <parkingAreaReroute id="11244343173" visible="true"/> <!-- dist: 0.0 -->
            <parkingAreaReroute id="299379585" visible="true"/> <!-- dist: 208.8 -->
            <parkingAreaReroute id="1299379585" visible="true"/> <!-- dist: 675.8 -->
            <parkingAreaReroute id="1244343173" visible="true"/> <!-- dist: 776.9 -->
        </interval>
    </rerouter>

    <rerouter id="1126063592" edges="85256467#1">
        <interval begin="0.0" end="86400">
            <!-- in order of distance --> 
            <parkingAreaReroute id="1126063592" visible="true"/> <!-- dist: 0.0 -->
            <parkingAreaReroute id="126063592" visible="true"/> <!-- dist: 168.4 -->
            <parkingAreaReroute id="126996070" visible="true"/> <!-- dist: 233.1 -->
            <parkingAreaReroute id="971255568" visible="true"/> <!-- dist: 364.6 -->
            <parkingAreaReroute id="1971255569" visible="true"/> <!-- dist: 371.1 -->
            <parkingAreaReroute id="1126996070" visible="true"/> <!-- dist: 443.4 -->
            <parkingAreaReroute id="1398504813" visible="true"/> <!-- dist: 524.0 -->
            <parkingAreaReroute id="5504643585" visible="true"/> <!-- dist: 566.9 -->
            <parkingAreaReroute id="85256469" visible="true"/> <!-- dist: 598.9 -->
            <parkingAreaReroute id="11398504813" visible="true"/> <!-- dist: 613.3 -->
            <parkingAreaReroute id="15504643585" visible="true"/> <!-- dist: 650.9 -->
        </interval>
    </rerouter>

    <rerouter id="1126866129" edges="190644687">
        <interval begin="0.0" end="86400">
            <!-- in order of distance --> 
            <parkingAreaReroute id="1126866129" visible="true"/> <!-- dist: 0.0 -->
            <parkingAreaReroute id="126866129" visible="true"/> <!-- dist: 167.7 -->
            <parkingAreaReroute id="126866130" visible="true"/> <!-- dist: 331.5 -->
            <parkingAreaReroute id="1126866130" visible="true"/> <!-- dist: 482.7 -->
            <parkingAreaReroute id="126868701" visible="true"/> <!-- dist: 538.1 -->
            <parkingAreaReroute id="304004370" visible="true"/> <!-- dist: 663.1 -->
            <parkingAreaReroute id="384041760" visible="true"/> <!-- dist: 793.1 -->
            <parkingAreaReroute id="1304004370" visible="true"/> <!-- dist: 851.4 -->
            <parkingAreaReroute id="441651325" visible="true"/> <!-- dist: 925.7 -->
            <parkingAreaReroute id="1384041760" visible="true"/> <!-- dist: 930.6 -->
            <parkingAreaReroute id="1441651325" visible="true"/> <!-- dist: 959.2 -->
        </interval>
    </rerouter>

    <rerouter id="1126866130" edges="26013134#1">
        <interval begin="0.0" end="86400">
            <!-- in order of distance --> 
            <parkingAreaReroute id="1126866130" visible="true"/> <!-- dist: 0.0 -->
            <parkingAreaReroute id="1126866129" visible="true"/> <!-- dist: 243.7 -->
            <parkingAreaReroute id="126866129" visible="true"/> <!-- dist: 326.4 -->
            <parkingAreaReroute id="126866130" visible="true"/> <!-- dist: 329.4 -->
            <parkingAreaReroute id="126868701" visible="true"/> <!-- dist: 491.7 -->
            <parkingAreaReroute id="304004370" visible="true"/> <!-- dist: 616.7 -->
            <parkingAreaReroute id="384041760" visible="true"/> <!-- dist: 746.7 -->
            <parkingAreaReroute id="1304004370" visible="true"/> <!-- dist: 804.9 -->
            <parkingAreaReroute id="441651325" visible="true"/> <!-- dist: 879.2 -->
            <parkingAreaReroute id="1384041760" visible="true"/> <!-- dist: 884.2 -->
            <parkingAreaReroute id="1441651325" visible="true"/> <!-- dist: 912.7 -->
        </interval>
    </rerouter>

    <rerouter id="1126868701" edges="159190117#6">
        <interval begin="0.0" end="86400">
            <!-- in order of distance --> 
            <parkingAreaReroute id="1126868701" visible="true"/> <!-- dist: 0.0 -->
            <parkingAreaReroute id="1126866130" visible="true"/> <!-- dist: 336.2 -->
            <parkingAreaReroute id="126868701" visible="true"/> <!-- dist: 352.2 -->
            <parkingAreaReroute id="304004370" visible="true"/> <!-- dist: 414.4 -->
            <parkingAreaReroute id="1126866129" visible="true"/> <!-- dist: 450.2 -->
            <parkingAreaReroute id="126866129" visible="true"/> <!-- dist: 533.0 -->
            <parkingAreaReroute id="126866130" visible="true"/> <!-- dist: 536.0 -->
            <parkingAreaReroute id="384041760" visible="true"/> <!-- dist: 544.4 -->
            <parkingAreaReroute id="1304004370" visible="true"/> <!-- dist: 602.7 -->
            <parkingAreaReroute id="1384041760" visible="true"/> <!-- dist: 681.9 -->
            <parkingAreaReroute id="441651325" visible="true"/> <!-- dist: 739.8 -->
        </interval>
    </rerouter>

    <rerouter id="1126986343" edges="-126986337">
        <interval begin="0.0" end="86400">
            <!-- in order of distance --> 
            <parkingAreaReroute id="1126986343" visible="true"/> <!-- dist: 0.0 -->
            <parkingAreaReroute id="126986343" visible="true"/> <!-- dist: 179.4 -->
        </interval>
    </rerouter>

    <rerouter id="1126996070" edges="104668977#0">
        <interval begin="0.0" end="86400">
            <!-- in order of distance --> 
            <parkingAreaReroute id="1126996070" visible="true"/> <!-- dist: 0.0 -->
            <parkingAreaReroute id="1126063592" visible="true"/> <!-- dist: 154.8 -->
            <parkingAreaReroute id="126063592" visible="true"/> <!-- dist: 237.9 -->
            <parkingAreaReroute id="126996070" visible="true"/> <!-- dist: 302.7 -->
            <parkingAreaReroute id="1398504813" visible="true"/> <!-- dist: 369.0 -->
            <parkingAreaReroute id="5504643585" visible="true"/> <!-- dist: 411.9 -->
            <parkingAreaReroute id="971255568" visible="true"/> <!-- dist: 434.1 -->
            <parkingAreaReroute id="1971255569" visible="true"/> <!-- dist: 437.1 -->
            <parkingAreaReroute id="11398504813" visible="true"/> <!-- dist: 458.3 -->
            <parkingAreaReroute id="15504643585" visible="true"/> <!-- dist: 495.9 -->
            <parkingAreaReroute id="371177009" visible="true"/> <!-- dist: 546.2 -->
        </interval>
    </rerouter>

    <rerouter id="1127563887" edges="-127563869#3">
        <interval begin="0.0" end="86400">
            <!-- in order of distance --> 
            <parkingAreaReroute id="1127563887" visible="true"/> <!-- dist: 0.0 -->
            <parkingAreaReroute id="127563887" visible="true"/> <!-- dist: 147.1 -->
            <parkingAreaReroute id="341040291" visible="true"/> <!-- dist: 903.5 -->
            <parkingAreaReroute id="341039979" visible="true"/> <!-- dist: 916.0 -->
            <parkingAreaReroute id="35151582" visible="true"/> <!-- dist: 950.5 -->
            <parkingAreaReroute id="341040293" visible="true"/> <!-- dist: 961.3 -->
            <parkingAreaReroute id="304003420" visible="true"/> <!-- dist: 998.0 -->
        </interval>
    </rerouter>

    <rerouter id="1127727988" edges="-26246587">
        <interval begin="0.0" end="86400">
            <!-- in order of distance --> 
            <parkingAreaReroute id="1127727988" visible="true"/> <!-- dist: 0.0 -->
            <parkingAreaReroute id="127727988" visible="true"/> <!-- dist: 118.8 -->
            <parkingAreaReroute id="1971255569" visible="true"/> <!-- dist: 314.9 -->
            <parkingAreaReroute id="1126996070" visible="true"/> <!-- dist: 332.3 -->
            <parkingAreaReroute id="971255568" visible="true"/> <!-- dist: 342.5 -->
            <parkingAreaReroute id="127727989" visible="true"/> <!-- dist: 367.7 -->
            <parkingAreaReroute id="9034987957" visible="true"/> <!-- dist: 367.7 -->
            <parkingAreaReroute id="1398504813" visible="true"/> <!-- dist: 425.3 -->
            <parkingAreaReroute id="1126063592" visible="true"/> <!-- dist: 446.9 -->
            <parkingAreaReroute id="126996070" visible="true"/> <!-- dist: 447.7 -->
            <parkingAreaReroute id="85256469" visible="true"/> <!-- dist: 460.7 -->
        </interval>
    </rerouter>

    <rerouter id="1131252072" edges="181623918#5">
        <interval begin="0.0" end="86400">
            <!-- in order of distance --> 
            <parkingAreaReroute id="1131252072" visible="true"/> <!-- dist: 0.0 -->
            <parkingAreaReroute id="11938395815" visible="true"/> <!-- dist: 610.2 -->
            <parkingAreaReroute id="131252072" visible="true"/> <!-- dist: 649.9 -->
            <parkingAreaReroute id="1938395815" visible="true"/> <!-- dist: 800.2 -->
            <parkingAreaReroute id="203715254" visible="true"/> <!-- dist: 863.2 -->
            <parkingAreaReroute id="407287646" visible="true"/> <!-- dist: 863.2 -->
            <parkingAreaReroute id="157124747" visible="true"/> <!-- dist: 876.9 -->
            <parkingAreaReroute id="1157124747" visible="true"/> <!-- dist: 921.2 -->
        </interval>
    </rerouter>

    <rerouter id="1136491286" edges="184452796#1">
        <interval begin="0.0" end="86400">
            <!-- in order of distance --> 
            <parkingAreaReroute id="1136491286" visible="true"/> <!-- dist: 0.0 -->
            <parkingAreaReroute id="136491286" visible="true"/> <!-- dist: 256.4 -->
            <parkingAreaReroute id="151705225" visible="true"/> <!-- dist: 522.8 -->
            <parkingAreaReroute id="151705230" visible="true"/> <!-- dist: 522.8 -->
            <parkingAreaReroute id="85328220" visible="true"/> <!-- dist: 719.8 -->
            <parkingAreaReroute id="692934783" visible="true"/> <!-- dist: 725.6 -->
            <parkingAreaReroute id="692934789" visible="true"/> <!-- dist: 725.6 -->
            <parkingAreaReroute id="692939131" visible="true"/> <!-- dist: 725.6 -->
            <parkingAreaReroute id="184451863" visible="true"/> <!-- dist: 727.8 -->
            <parkingAreaReroute id="692939130" visible="true"/> <!-- dist: 754.8 -->
            <parkingAreaReroute id="116196041" visible="true"/> <!-- dist: 776.7 -->
        </interval>
    </rerouter>

    <rerouter id="1136607878" edges="321426017">
        <interval begin="0.0" end="86400">
            <!-- in order of distance --> 
            <parkingAreaReroute id="1136607878" visible="true"/> <!-- dist: 0.0 -->
            <parkingAreaReroute id="511285530" visible="true"/> <!-- dist: 285.7 -->
            <parkingAreaReroute id="136607878" visible="true"/> <!-- dist: 398.4 -->
            <parkingAreaReroute id="1845945160" visible="true"/> <!-- dist: 705.9 -->
            <parkingAreaReroute id="1845945161" visible="true"/> <!-- dist: 705.9 -->
            <parkingAreaReroute id="1902735979" visible="true"/> <!-- dist: 706.1 -->
            <parkingAreaReroute id="341375739" visible="true"/> <!-- dist: 766.5 -->
            <parkingAreaReroute id="845945160" visible="true"/> <!-- dist: 770.1 -->
            <parkingAreaReroute id="845945161" visible="true"/> <!-- dist: 770.1 -->
            <parkingAreaReroute id="1341375739" visible="true"/> <!-- dist: 774.9 -->
            <parkingAreaReroute id="1337744910" visible="true"/> <!-- dist: 821.3 -->
        </interval>
    </rerouter>

    <rerouter id="11398504813" edges="-371176444#0">
        <interval begin="0.0" end="86400">
            <!-- in order of distance --> 
            <parkingAreaReroute id="11398504813" visible="true"/> <!-- dist: 0.0 -->
            <parkingAreaReroute id="5504643585" visible="true"/> <!-- dist: 128.0 -->
            <parkingAreaReroute id="1398504813" visible="true"/> <!-- dist: 205.9 -->
            <parkingAreaReroute id="371177009" visible="true"/> <!-- dist: 264.8 -->
            <parkingAreaReroute id="902659461" visible="true"/> <!-- dist: 466.3 -->
            <parkingAreaReroute id="341040291" visible="true"/> <!-- dist: 523.8 -->
            <parkingAreaReroute id="126996070" visible="true"/> <!-- dist: 533.9 -->
            <parkingAreaReroute id="1902659461" visible="true"/> <!-- dist: 544.4 -->
            <parkingAreaReroute id="341040293" visible="true"/> <!-- dist: 581.6 -->
            <parkingAreaReroute id="1126063592" visible="true"/> <!-- dist: 610.6 -->
            <parkingAreaReroute id="15504643585" visible="true"/> <!-- dist: 649.3 -->
        </interval>
    </rerouter>

    <rerouter id="1151708460" edges="-25805464">
        <interval begin="0.0" end="86400">
            <!-- in order of distance --> 
            <parkingAreaReroute id="1151708460" visible="true"/> <!-- dist: 0.0 -->
            <parkingAreaReroute id="1101569245" visible="true"/> <!-- dist: 431.8 -->
            <parkingAreaReroute id="151708460" visible="true"/> <!-- dist: 519.7 -->
            <parkingAreaReroute id="192469479" visible="true"/> <!-- dist: 595.4 -->
            <parkingAreaReroute id="192469475" visible="true"/> <!-- dist: 689.8 -->
            <parkingAreaReroute id="192469476" visible="true"/> <!-- dist: 689.8 -->
            <parkingAreaReroute id="92469479" visible="true"/> <!-- dist: 744.8 -->
            <parkingAreaReroute id="511285530" visible="true"/> <!-- dist: 746.0 -->
            <parkingAreaReroute id="92469475" visible="true"/> <!-- dist: 779.1 -->
            <parkingAreaReroute id="92469476" visible="true"/> <!-- dist: 779.1 -->
            <parkingAreaReroute id="101569245" visible="true"/> <!-- dist: 806.7 -->
        </interval>
    </rerouter>

    <rerouter id="1157124747" edges="29074526#2">
        <interval begin="0.0" end="86400">
            <!-- in order of distance --> 
            <parkingAreaReroute id="1157124747" visible="true"/> <!-- dist: 0.0 -->
            <parkingAreaReroute id="157124747" visible="true"/> <!-- dist: 279.7 -->
            <parkingAreaReroute id="1131252072" visible="true"/> <!-- dist: 398.4 -->
            <parkingAreaReroute id="1407287581" visible="true"/> <!-- dist: 596.1 -->
            <parkingAreaReroute id="11938395815" visible="true"/> <!-- dist: 667.5 -->
            <parkingAreaReroute id="1207519602" visible="true"/> <!-- dist: 728.2 -->
            <parkingAreaReroute id="407287581" visible="true"/> <!-- dist: 832.0 -->
            <parkingAreaReroute id="131252072" visible="true"/> <!-- dist: 877.2 -->
            <parkingAreaReroute id="885498086" visible="true"/> <!-- dist: 928.4 -->
            <parkingAreaReroute id="203715254" visible="true"/> <!-- dist: 993.5 -->
            <parkingAreaReroute id="407287646" visible="true"/> <!-- dist: 993.5 -->
        </interval>
    </rerouter>

    <rerouter id="1157364266" edges="157539099#5">
        <interval begin="0.0" end="86400">
            <!-- in order of distance --> 
            <parkingAreaReroute id="1157364266" visible="true"/> <!-- dist: 0.0 -->
            <parkingAreaReroute id="160782858" visible="true"/> <!-- dist: 152.0 -->
            <parkingAreaReroute id="157364266" visible="true"/> <!-- dist: 340.1 -->
            <parkingAreaReroute id="1902659461" visible="true"/> <!-- dist: 395.3 -->
            <parkingAreaReroute id="178154001" visible="true"/> <!-- dist: 537.5 -->
            <parkingAreaReroute id="1178154001" visible="true"/> <!-- dist: 606.7 -->
            <parkingAreaReroute id="178154002" visible="true"/> <!-- dist: 607.0 -->
            <parkingAreaReroute id="902659461" visible="true"/> <!-- dist: 623.4 -->
            <parkingAreaReroute id="60782858" visible="true"/> <!-- dist: 639.6 -->
            <parkingAreaReroute id="1178154002" visible="true"/> <!-- dist: 654.1 -->
            <parkingAreaReroute id="15504643585" visible="true"/> <!-- dist: 761.1 -->
        </interval>
    </rerouter>

    <rerouter id="1159866468" edges="-184446312">
        <interval begin="0.0" end="86400">
            <!-- in order of distance --> 
            <parkingAreaReroute id="1159866468" visible="true"/> <!-- dist: 0.0 -->
            <parkingAreaReroute id="1184446325" visible="true"/> <!-- dist: 45.4 -->
            <parkingAreaReroute id="159866468" visible="true"/> <!-- dist: 115.4 -->
            <parkingAreaReroute id="184446325" visible="true"/> <!-- dist: 115.4 -->
            <parkingAreaReroute id="184446324" visible="true"/> <!-- dist: 391.1 -->
            <parkingAreaReroute id="1184446324" visible="true"/> <!-- dist: 577.1 -->
            <parkingAreaReroute id="693047308" visible="true"/> <!-- dist: 831.2 -->
        </interval>
    </rerouter>

    <rerouter id="116196041" edges="29309489#5">
        <interval begin="0.0" end="86400">
            <!-- in order of distance --> 
            <parkingAreaReroute id="116196041" visible="true"/> <!-- dist: 0.0 -->
            <parkingAreaReroute id="1116196041" visible="true"/> <!-- dist: 79.5 -->
            <parkingAreaReroute id="85445811" visible="true"/> <!-- dist: 687.1 -->
            <parkingAreaReroute id="1337523537" visible="true"/> <!-- dist: 706.7 -->
            <parkingAreaReroute id="85328220" visible="true"/> <!-- dist: 726.7 -->
            <parkingAreaReroute id="1136607878" visible="true"/> <!-- dist: 747.6 -->
            <parkingAreaReroute id="341375739" visible="true"/> <!-- dist: 749.5 -->
            <parkingAreaReroute id="151705225" visible="true"/> <!-- dist: 766.3 -->
            <parkingAreaReroute id="151705230" visible="true"/> <!-- dist: 766.3 -->
            <parkingAreaReroute id="337326907" visible="true"/> <!-- dist: 804.9 -->
            <parkingAreaReroute id="136491286" visible="true"/> <!-- dist: 815.2 -->
        </interval>
    </rerouter>

    <rerouter id="1175256621" edges="-321421862#4">
        <interval begin="0.0" end="86400">
            <!-- in order of distance --> 
            <parkingAreaReroute id="1175256621" visible="true"/> <!-- dist: 0.0 -->
            <parkingAreaReroute id="175256621" visible="true"/> <!-- dist: 379.4 -->
            <parkingAreaReroute id="175263664" visible="true"/> <!-- dist: 538.8 -->
            <parkingAreaReroute id="175256623" visible="true"/> <!-- dist: 568.8 -->
            <parkingAreaReroute id="320182978" visible="true"/> <!-- dist: 665.0 -->
            <parkingAreaReroute id="1175256623" visible="true"/> <!-- dist: 739.4 -->
            <parkingAreaReroute id="1175263664" visible="true"/> <!-- dist: 744.0 -->