<additional xmlns:xsi="http://www.w3.org/2001/XMLSchema-instance" xsi:noNamespaceSchemaLocation="http://sumo.dlr.de/xsd/additional_file.xsd">
<parkingArea endPos="67.56713340290005" friendlyPos="true" id="85131424" lane="971255563_1" roadsideCapacity="1000" startPos="57.56713340290006" />
    <parkingArea endPos="117.72145273994262" friendlyPos="true" id="296320465" lane="27033037#4_1" roadsideCapacity="1000" startPos="107.72145273994262" />
    <parkingArea endPos="20.0" friendlyPos="true" id="299379585" lane="321047062#1_1" roadsideCapacity="1000" startPos="10.0" />
    <parkingArea endPos="213.15863689401587" friendlyPos="true" id="634431351" lane="-49424457#0_1" roadsideCapacity="1000" startPos="203.15863689401587" />
    <parkingArea endPos="36.107781716590374" friendlyPos="true" id="634431352" lane="-184630050#2_1" roadsideCapacity="1000" startPos="26.107781716590374" />
    <parkingArea endPos="20.0" friendlyPos="true" id="650696433" lane="-127529157#1_1" roadsideCapacity="1000" startPos="10.0" />
    <parkingArea endPos="20.0" friendlyPos="true" id="844691505" lane="54225653#0_1" roadsideCapacity="1000" startPos="10.0" />
    <parkingArea endPos="51.0" friendlyPos="true" id="1244343173" lane="-321047078#1_1" roadsideCapacity="1000" startPos="41.0" />
    <parkingArea endPos="32.57" friendlyPos="true" id="1398504813" lane="371176444#0_1" roadsideCapacity="1000" startPos="22.57" />
    <parkingArea endPos="43.33" friendlyPos="true" id="1938395815" lane="-122958362_1" roadsideCapacity="1000" startPos="33.33" />
    <parkingArea endPos="20.0" friendlyPos="true" id="1951314391" lane="-282721940_1" roadsideCapacity="1000" startPos="10.0" />
    <parkingArea endPos="20.41" friendlyPos="true" id="2015001371" lane="-101371626#3_1" roadsideCapacity="1000" startPos="10.41" />
    <parkingArea endPos="26.411219258694025" friendlyPos="true" id="5504643585" lane="65547484#2_1" roadsideCapacity="1000" startPos="16.411219258694025" />
    <parkingArea endPos="70.35628500211519" friendlyPos="true" id="25945935" lane="-26175083_1" roadsideCapacity="1000" startPos="60.356285002115186" />
    <parkingArea endPos="161.39" friendlyPos="true" id="35151582" lane="35151581#0_1" roadsideCapacity="1000" startPos="151.39" />
    <parkingArea endPos="55.68000000000001" friendlyPos="true" id="37933500" lane="28321864#1_1" roadsideCapacity="1000" startPos="45.68000000000001" />
    <parkingArea endPos="44.38059305721239" friendlyPos="true" id="44864790" lane="-286130631#1_1" roadsideCapacity="1000" startPos="34.38059305721239" />
    <parkingArea endPos="105.00141437872875" friendlyPos="true" id="50463827" lane="-26099177_0" roadsideCapacity="1000" startPos="95.00141437872875" />
    <parkingArea endPos="38.84939698295804" friendlyPos="true" id="60782858" lane="-157253918#1_1" roadsideCapacity="1000" startPos="28.84939698295804" />
    <parkingArea endPos="30.848037911628793" friendlyPos="true" id="177628796" lane="37033888#3_1" roadsideCapacity="1000" startPos="20.848037911628793" />
    <parkingArea endPos="82.16" friendlyPos="true" id="85256469" lane="104667478#0_0" roadsideCapacity="1000" startPos="72.16" />
    <parkingArea endPos="120.02130209534727" friendlyPos="true" id="85314555" lane="98462787_1" roadsideCapacity="1000" startPos="110.02130209534727" />
    <parkingArea endPos="38.09998491280241" friendlyPos="true" id="85328219" lane="85328218#5_1" roadsideCapacity="1000" startPos="28.099984912802412" />
    <parkingArea endPos="29.636699789923988" friendlyPos="true" id="85328220" lane="25796744#2_1" roadsideCapacity="1000" startPos="19.636699789923988" />
    <parkingArea endPos="85.29827716009247" friendlyPos="true" id="85445811" lane="-25805452#6_1" roadsideCapacity="1000" startPos="75.29827716009247" />
    <parkingArea endPos="65.39830551472919" friendlyPos="true" id="90771298" lane="291223660#0_1" roadsideCapacity="1000" startPos="55.39830551472919" />
    <parkingArea endPos="30.884017160857873" friendlyPos="true" id="91624317" lane="-127529207#5_1" roadsideCapacity="1000" startPos="20.884017160857873" />
    <parkingArea endPos="22.8330805004214" friendlyPos="true" id="92469475" lane="679688944#1_1" roadsideCapacity="1000" startPos="12.8330805004214" />
    <parkingArea endPos="35.163137102184876" friendlyPos="true" id="92469476" lane="679688944#1_1" roadsideCapacity="1000" startPos="25.16313710218488" />
    <parkingArea endPos="105.77203114321645" friendlyPos="true" id="92469479" lane="65526300#0_1" roadsideCapacity="1000" startPos="95.77203114321645" />
    <parkingArea endPos="38.75412504231836" friendlyPos="true" id="101569245" lane="65526300#1_1" roadsideCapacity="1000" startPos="28.754125042318357" />
    <parkingArea endPos="33.09150368124209" friendlyPos="true" id="101569247" lane="148238402#0_1" roadsideCapacity="1000" startPos="23.091503681242088" />
    <parkingArea endPos="72.61265814347473" friendlyPos="true" id="126866130" lane="-26013134#1_1" roadsideCapacity="1000" startPos="62.61265814347473" />
    <parkingArea endPos="42.88" friendlyPos="true" id="177984384" lane="36906143#2_1" roadsideCapacity="1000" startPos="32.88" />
    <parkingArea endPos="29.12663760996758" friendlyPos="true" id="104494838" lane="104494836#3_1" roadsideCapacity="1000" startPos="19.12663760996758" />
    <parkingArea endPos="57.03360771171766" friendlyPos="true" id="104709803" lane="902040672#0_1" roadsideCapacity="1000" startPos="47.03360771171766" />
    <parkingArea endPos="73.89" friendlyPos="true" id="104962126" lane="902040672#0_1" roadsideCapacity="1000" startPos="63.89" />
    <parkingArea endPos="84.46402043122582" friendlyPos="true" id="105020956" lane="286110847#1_1" roadsideCapacity="1000" startPos="74.46402043122582" />
    <parkingArea endPos="29.54" friendlyPos="true" id="116196041" lane="29309489#5_1" roadsideCapacity="1000" startPos="19.54" />
    <parkingArea endPos="60.29203609269635" friendlyPos="true" id="120116161" lane="104665539_1" roadsideCapacity="1000" startPos="50.29203609269635" />
    <parkingArea endPos="38.503177264242616" friendlyPos="true" id="126063592" lane="-85256467#1_1" roadsideCapacity="1000" startPos="28.503177264242616" />
    <parkingArea endPos="72.79" friendlyPos="true" id="126866129" lane="-190644687_1" roadsideCapacity="1000" startPos="62.790000000000006" />
    <parkingArea endPos="32.26433021099278" friendlyPos="true" id="126868701" lane="-159190117#6_1" roadsideCapacity="1000" startPos="22.264330210992785" />
    <parkingArea endPos="22.319181925725687" friendlyPos="true" id="126986343" lane="126986337_1" roadsideCapacity="1000" startPos="12.319181925725687" />
    <parkingArea endPos="27.950000000000003" friendlyPos="true" id="126996070" lane="-104668977#0_1" roadsideCapacity="1000" startPos="17.950000000000003" />
    <parkingArea endPos="20.0" friendlyPos="true" id="127563887" lane="127563869#3_1" roadsideCapacity="1000" startPos="10.0" />
    <parkingArea endPos="20.0" friendlyPos="true" id="127727988" lane="26246587_0" roadsideCapacity="1000" startPos="10.0" />
    <parkingArea endPos="27.507910528899323" friendlyPos="true" id="127727989" lane="240561439_1" roadsideCapacity="1000" startPos="17.507910528899323" />
    <parkingArea endPos="26.570363233118787" friendlyPos="true" id="131252072" lane="-181623918#5_1" roadsideCapacity="1000" startPos="16.570363233118787" />
    <parkingArea endPos="20.0" friendlyPos="true" id="136491286" lane="-184452796#1_1" roadsideCapacity="1000" startPos="10.0" />
    <parkingArea endPos="84.26800759318263" friendlyPos="true" id="136607878" lane="-321426017_1" roadsideCapacity="1000" startPos="74.26800759318263" />
    <parkingArea endPos="26.509921258631493" friendlyPos="true" id="137839902" lane="287276473#1_1" roadsideCapacity="1000" startPos="16.509921258631493" />
    <parkingArea endPos="82.28776212526903" friendlyPos="true" id="151705225" lane="248645889#0_1" roadsideCapacity="1000" startPos="72.28776212526903" />
    <parkingArea endPos="119.28546633796533" friendlyPos="true" id="151705230" lane="248645889#0_1" roadsideCapacity="1000" startPos="109.28546633796533" />
    <parkingArea endPos="134.68586097460323" friendlyPos="true" id="151708460" lane="25805464_1" roadsideCapacity="1000" startPos="124.68586097460323" />
    <parkingArea endPos="53.0394841526467" friendlyPos="true" id="157124747" lane="-29074526#2_1" roadsideCapacity="1000" startPos="43.0394841526467" />
    <parkingArea endPos="44.93778037897214" friendlyPos="true" id="157364266" lane="-157539099#5_1" roadsideCapacity="1000" startPos="34.93778037897214" />
    <parkingArea endPos="20.0" friendlyPos="true" id="159866468" lane="184446312_1" roadsideCapacity="1000" startPos="10.0" />
    <parkingArea endPos="41.8771581749092" friendlyPos="true" id="175256621" lane="321421862#4_1" roadsideCapacity="1000" startPos="31.877158174909198" />
    <parkingArea endPos="20.0" friendlyPos="true" id="175256623" lane="175256599#1_1" roadsideCapacity="1000" startPos="10.0" />
    <parkingArea endPos="151.1" friendlyPos="true" id="175263664" lane="-101374523#2_1" roadsideCapacity="1000" startPos="141.1" />
    <parkingArea endPos="20.0" friendlyPos="true" id="177269749" lane="28321808#1_1" roadsideCapacity="1000" startPos="10.0" />
    <parkingArea endPos="26.759999999999998" friendlyPos="true" id="177269750" lane="28321808#1_1" roadsideCapacity="1000" startPos="16.759999999999998" />
    <parkingArea endPos="33.4" friendlyPos="true" id="177297153" lane="35980402#1_1" roadsideCapacity="1000" startPos="23.4" />
    <parkingArea endPos="20.0" friendlyPos="true" id="177304400" lane="35980403#2_1" roadsideCapacity="1000" startPos="10.0" />
    <parkingArea endPos="33.78" friendlyPos="true" id="177304402" lane="35980403#3_1" roadsideCapacity="1000" startPos="23.78" />
    <parkingArea endPos="20.0" friendlyPos="true" id="177315654" lane="35980405#2_1" roadsideCapacity="1000" startPos="10.0" />
    <parkingArea endPos="99.83255794166175" friendlyPos="true" id="177341939" lane="-35980406#1_1" roadsideCapacity="1000" startPos="89.83255794166175" />
    <parkingArea endPos="66.8590722848013" friendlyPos="true" id="177426065" lane="-37630653_1" roadsideCapacity="1000" startPos="56.8590722848013" />
    <parkingArea endPos="45.49140927627433" friendlyPos="true" id="177426066" lane="-37334672#0_1" roadsideCapacity="1000" startPos="35.49140927627433" />
    <parkingArea endPos="65.2612758976554" friendlyPos="true" id="177426067" lane="-37630652_1" roadsideCapacity="1000" startPos="55.2612758976554" />
    <parkingArea endPos="20.0" friendlyPos="true" id="177432442" lane="-37334673#1_1" roadsideCapacity="1000" startPos="10.0" />
    <parkingArea endPos="64.49314712899952" friendlyPos="true" id="177434345" lane="37334674#0_1" roadsideCapacity="1000" startPos="54.493147128999524" />
    <parkingArea endPos="37.880975636836205" friendlyPos="true" id="177505139" lane="-105592740#1_1" roadsideCapacity="1000" startPos="27.880975636836205" />
    <parkingArea endPos="34.23556233094848" friendlyPos="true" id="177505140" lane="105592740#7_1" roadsideCapacity="1000" startPos="24.235562330948483" />
    <parkingArea endPos="84.50858434099278" friendlyPos="true" id="177505143" lane="-105592740#5_1" roadsideCapacity="1000" startPos="74.50858434099278" />
    <parkingArea endPos="45.235441438499755" friendlyPos="true" id="177529432" lane="-37334669#2_1" roadsideCapacity="1000" startPos="35.235441438499755" />
    <parkingArea endPos="39.8740354952147" friendlyPos="true" id="177529433" lane="37334670#1_1" roadsideCapacity="1000" startPos="29.8740354952147" />
    <parkingArea endPos="69.65461358371638" friendlyPos="true" id="177529434" lane="37334671#0_1" roadsideCapacity="1000" startPos="59.65461358371638" />
    <parkingArea endPos="20.0" friendlyPos="true" id="177529435" lane="-37334669#2_1" roadsideCapacity="1000" startPos="10.0" />
    <parkingArea endPos="127.78403533679207" friendlyPos="true" id="177529436" lane="-37334669#3_1" roadsideCapacity="1000" startPos="117.78403533679207" />
    <parkingArea endPos="25.19947729729006" friendlyPos="true" id="177617182" lane="306418874#0_1" roadsideCapacity="1000" startPos="15.19947729729006" />
    <parkingArea endPos="51.97" friendlyPos="true" id="177647990" lane="306418874#1_1" roadsideCapacity="1000" startPos="41.97" />
    <parkingArea endPos="28.190735726072788" friendlyPos="true" id="177791485" lane="177791484#0_1" roadsideCapacity="1000" startPos="18.190735726072788" />
    <parkingArea endPos="27.869999999999997" friendlyPos="true" id="177792746" lane="-34160113#0_1" roadsideCapacity="1000" startPos="17.869999999999997" />
    <parkingArea endPos="20.0" friendlyPos="true" id="177863207" lane="177863200#9_1" roadsideCapacity="1000" startPos="10.0" />
    <parkingArea endPos="30.09146150262184" friendlyPos="true" id="177863208" lane="177863200#3_1" roadsideCapacity="1000" startPos="20.09146150262184" />
    <parkingArea endPos="35.75" friendlyPos="true" id="177863209" lane="177863200#6_1" roadsideCapacity="1000" startPos="25.75" />
    <parkingArea endPos="20.848719133603012" friendlyPos="true" id="177863210" lane="177863200#10_1" roadsideCapacity="1000" startPos="10.848719133603012" />
    <parkingArea endPos="28.700683175376493" friendlyPos="true" id="177863211" lane="177863200#5_1" roadsideCapacity="1000" startPos="18.700683175376493" />
    <parkingArea endPos="22.502483501067513" friendlyPos="true" id="177863212" lane="177863200#8_1" roadsideCapacity="1000" startPos="12.502483501067513" />
    <parkingArea endPos="20.164961188048782" friendlyPos="true" id="177863213" lane="177863200#6_1" roadsideCapacity="1000" startPos="10.164961188048782" />
    <parkingArea endPos="36.44" friendlyPos="true" id="177863214" lane="177863200#2_1" roadsideCapacity="1000" startPos="26.439999999999998" />
    <parkingArea endPos="23.86252621073326" friendlyPos="true" id="177863215" lane="177863200#4_1" roadsideCapacity="1000" startPos="13.862526210733261" />
    <parkingArea endPos="50.67" friendlyPos="true" id="177864182" lane="38867249_1" roadsideCapacity="1000" startPos="40.67" />
    <parkingArea endPos="42.55" friendlyPos="true" id="177984383" lane="34203641#1_1" roadsideCapacity="1000" startPos="32.55" />
    <parkingArea endPos="64.64644955314242" friendlyPos="true" id="178016790" lane="34160113#4_1" roadsideCapacity="1000" startPos="54.64644955314242" />
    <parkingArea endPos="29.28848979552611" friendlyPos="true" id="178016791" lane="-34160113#3_1" roadsideCapacity="1000" startPos="19.28848979552611" />
    <parkingArea endPos="48.35251349425926" friendlyPos="true" id="178016792" lane="-34160113#2_1" roadsideCapacity="1000" startPos="38.35251349425926" />
    <parkingArea endPos="46.728638322332216" friendlyPos="true" id="178016793" lane="-34160113#4_1" roadsideCapacity="1000" startPos="36.728638322332216" />
    <parkingArea endPos="74.42" friendlyPos="true" id="178018376" lane="-34160113#3_1" roadsideCapacity="1000" startPos="64.42" />
    <parkingArea endPos="53.46164444358797" friendlyPos="true" id="178122915" lane="-306417543#0_1" roadsideCapacity="1000" startPos="43.46164444358797" />
    <parkingArea endPos="49.372446521274426" friendlyPos="true" id="178122916" lane="306417543#0_1" roadsideCapacity="1000" startPos="39.372446521274426" />
    <parkingArea endPos="40.61933684744254" friendlyPos="true" id="178122917" lane="306417543#1_1" roadsideCapacity="1000" startPos="30.61933684744254" />
    <parkingArea endPos="44.13" friendlyPos="true" id="178154001" lane="30610463#5_1" roadsideCapacity="1000" startPos="34.13" />
    <parkingArea endPos="38.03632388109897" friendlyPos="true" id="178154002" lane="-30610463#7_1" roadsideCapacity="1000" startPos="28.036323881098973" />
    <parkingArea endPos="21.345194384384968" friendlyPos="true" id="178154058" lane="178154056_1" roadsideCapacity="1000" startPos="11.345194384384968" />
    <parkingArea endPos="20.0" friendlyPos="true" id="178154118" lane="178154056_1" roadsideCapacity="1000" startPos="10.0" />
    <parkingArea endPos="33.78256458382312" friendlyPos="true" id="178854314" lane="178503644#1_1" roadsideCapacity="1000" startPos="23.78256458382312" />
    <parkingArea endPos="107.63" friendlyPos="true" id="178262241" lane="28190428#3_1" roadsideCapacity="1000" startPos="97.63" />
    <parkingArea endPos="20.0" friendlyPos="true" id="178262242" lane="28190428#6_1" roadsideCapacity="1000" startPos="10.0" />
    <parkingArea endPos="76.5" friendlyPos="true" id="178262243" lane="306417543#0_1" roadsideCapacity="1000" startPos="66.5" />
    <parkingArea endPos="20.0" friendlyPos="true" id="178262245" lane="306417543#1_1" roadsideCapacity="1000" startPos="10.0" />
    <parkingArea endPos="107.63" friendlyPos="true" id="178262246" lane="28190428#3_1" roadsideCapacity="1000" startPos="97.63" />
    <parkingArea endPos="107.63" friendlyPos="true" id="178262247" lane="28190428#3_1" roadsideCapacity="1000" startPos="97.63" />
    <parkingArea endPos="107.63" friendlyPos="true" id="178262248" lane="28190428#3_1" roadsideCapacity="1000" startPos="97.63" />
    <parkingArea endPos="28.986996215023154" friendlyPos="true" id="178302496" lane="28190428#3_1" roadsideCapacity="1000" startPos="18.986996215023154" />
    <parkingArea endPos="67.83858955075593" friendlyPos="true" id="178302497" lane="28190428#1_1" roadsideCapacity="1000" startPos="57.838589550755934" />
    <parkingArea endPos="20.0" friendlyPos="true" id="178304084" lane="-35980404#7_1" roadsideCapacity="1000" startPos="10.0" />
    <parkingArea endPos="20.0" friendlyPos="true" id="178304085" lane="-35980404#5_1" roadsideCapacity="1000" startPos="10.0" />
    <parkingArea endPos="26.770000000000003" friendlyPos="true" id="178304508" lane="-35980404#5_1" roadsideCapacity="1000" startPos="16.770000000000003" />
    <parkingArea endPos="100.94" friendlyPos="true" id="178304510" lane="34160113#8_1" roadsideCapacity="1000" startPos="90.94" />
    <parkingArea endPos="21.497090959231276" friendlyPos="true" id="178309725" lane="34160113#9_1" roadsideCapacity="1000" startPos="11.497090959231276" />
    <parkingArea endPos="26.806184312386083" friendlyPos="true" id="178859827" lane="-37134019#1_1" roadsideCapacity="1000" startPos="16.806184312386083" />
    <parkingArea endPos="31.995512309515327" friendlyPos="true" id="178433435" lane="37033890#2_1" roadsideCapacity="1000" startPos="21.995512309515327" />
    <parkingArea endPos="86.6" friendlyPos="true" id="178433436" lane="37033890#2_1" roadsideCapacity="1000" startPos="76.6" />
    <parkingArea endPos="20.0" friendlyPos="true" id="178537773" lane="-178592412#0_1" roadsideCapacity="1000" startPos="10.0" />
    <parkingArea endPos="32.94" friendlyPos="true" id="178537774" lane="-178592412#0_1" roadsideCapacity="1000" startPos="22.939999999999998" />
    <parkingArea endPos="20.0" friendlyPos="true" id="178593064" lane="-178592412#0_1" roadsideCapacity="1000" startPos="10.0" />
    <parkingArea endPos="109.05" friendlyPos="true" id="178597352" lane="-178592412#9_1" roadsideCapacity="1000" startPos="99.05" />
    <parkingArea endPos="37.9" friendlyPos="true" id="178600222" lane="-28190428#6_1" roadsideCapacity="1000" startPos="27.9" />
    <parkingArea endPos="40.41" friendlyPos="true" id="178678830" lane="178503651#0_1" roadsideCapacity="1000" startPos="30.409999999999997" />
    <parkingArea endPos="20.0" friendlyPos="true" id="178678831" lane="178503651#3_1" roadsideCapacity="1000" startPos="10.0" />
    <parkingArea endPos="20.0" friendlyPos="true" id="178854310" lane="-37134023_1" roadsideCapacity="1000" startPos="10.0" />
    <parkingArea endPos="69.54" friendlyPos="true" id="178854311" lane="37134022_1" roadsideCapacity="1000" startPos="59.540000000000006" />
    <parkingArea endPos="37.07435957849021" friendlyPos="true" id="178854313" lane="443002919#0_1" roadsideCapacity="1000" startPos="27.07435957849021" />
    <parkingArea endPos="21.09675130018282" friendlyPos="true" id="178859828" lane="-37134020#1_1" roadsideCapacity="1000" startPos="11.09675130018282" />
    <parkingArea endPos="23.237065354748367" friendlyPos="true" id="178859829" lane="-36906146#2_1" roadsideCapacity="1000" startPos="13.237065354748367" />
    <parkingArea endPos="20.0" friendlyPos="true" id="178925826" lane="-37033900#4_1" roadsideCapacity="1000" startPos="10.0" />
    <parkingArea endPos="30.086204181527965" friendlyPos="true" id="178925827" lane="-36814275#4_1" roadsideCapacity="1000" startPos="20.086204181527965" />
    <parkingArea endPos="30.521585973191442" friendlyPos="true" id="179646615" lane="-179631748_1" roadsideCapacity="1000" startPos="20.521585973191442" />
    <parkingArea endPos="20.0" friendlyPos="true" id="179776106" lane="179966411#1_1" roadsideCapacity="1000" startPos="10.0" />
    <parkingArea endPos="25.049999999999997" friendlyPos="true" id="179776107" lane="179966411#1_1" roadsideCapacity="1000" startPos="15.049999999999997" />
    <parkingArea endPos="25.89904315608554" friendlyPos="true" id="179783120" lane="179631747_1" roadsideCapacity="1000" startPos="15.89904315608554" />
    <parkingArea endPos="25.049999999999997" friendlyPos="true" id="179784479" lane="179966411#1_1" roadsideCapacity="1000" startPos="15.049999999999997" />
    <parkingArea endPos="85.88310857056408" friendlyPos="true" id="179826011" lane="179631746_1" roadsideCapacity="1000" startPos="75.88310857056408" />
    <parkingArea endPos="20.0" friendlyPos="true" id="181630940" lane="136521798#2_0" roadsideCapacity="1000" startPos="10.0" />
    <parkingArea endPos="28.59595541804813" friendlyPos="true" id="184272601" lane="70848446_1" roadsideCapacity="1000" startPos="18.59595541804813" />
    <parkingArea endPos="20.0" friendlyPos="true" id="184405828" lane="-184441095_1" roadsideCapacity="1000" startPos="10.0" />
    <parkingArea endPos="20.0" friendlyPos="true" id="184441096" lane="-159512293_0" roadsideCapacity="1000" startPos="10.0" />
    <parkingArea endPos="29.126995247628518" friendlyPos="true" id="184441097" lane="-159512293_0" roadsideCapacity="1000" startPos="19.126995247628518" />
    <parkingArea endPos="20.0" friendlyPos="true" id="184446324" lane="-679568116_0" roadsideCapacity="1000" startPos="10.0" />
    <parkingArea endPos="22.784949586676873" friendlyPos="true" id="184446325" lane="184446312_1" roadsideCapacity="1000" startPos="12.784949586676873" />
    <parkingArea endPos="20.0" friendlyPos="true" id="184451863" lane="159511090#0_1" roadsideCapacity="1000" startPos="10.0" />
    <parkingArea endPos="241.04890507319277" friendlyPos="true" id="190486454" lane="-25946022#0_1" roadsideCapacity="1000" startPos="231.04890507319277" />
    <parkingArea endPos="20.0" friendlyPos="true" id="190905731" lane="25945925#1_1" roadsideCapacity="1000" startPos="10.0" />
    <parkingArea endPos="51.499964063600565" friendlyPos="true" id="200313027" lane="-286130631#1_1" roadsideCapacity="1000" startPos="41.499964063600565" />
    <parkingArea endPos="66.34" friendlyPos="true" id="200313030" lane="-286130631#1_1" roadsideCapacity="1000" startPos="56.34" />
    <parkingArea endPos="20.0" friendlyPos="true" id="200313033" lane="240545252#0_1" roadsideCapacity="1000" startPos="10.0" />
    <parkingArea endPos="20.0" friendlyPos="true" id="200401946" lane="233394032#0_1" roadsideCapacity="1000" startPos="10.0" />
    <parkingArea endPos="60.02396568768935" friendlyPos="true" id="203715254" lane="-200325406#0_1" roadsideCapacity="1000" startPos="50.02396568768935" />
    <parkingArea endPos="91.14014859518213" friendlyPos="true" id="207516634" lane="-23696275#4_1" roadsideCapacity="1000" startPos="81.14014859518213" />
    <parkingArea endPos="120.7553991570858" friendlyPos="true" id="207519602" lane="-65547495#3_1" roadsideCapacity="1000" startPos="110.7553991570858" />
    <parkingArea endPos="61.641726245834064" friendlyPos="true" id="212440860" lane="-212112831#0_1" roadsideCapacity="1000" startPos="51.641726245834064" />
    <parkingArea endPos="193.92" friendlyPos="true" id="217946718" lane="23688920#3_1" roadsideCapacity="1000" startPos="183.92" />
    <parkingArea endPos="56.18046150184915" friendlyPos="true" id="217998167" lane="-157535157#2_1" roadsideCapacity="1000" startPos="46.18046150184915" />
    <parkingArea endPos="26.441642307458658" friendlyPos="true" id="288207597" lane="-845855186#2_1" roadsideCapacity="1000" startPos="16.441642307458658" />
    <parkingArea endPos="24.588748495960395" friendlyPos="true" id="219596941" lane="157535172_1" roadsideCapacity="1000" startPos="14.588748495960395" />
    <parkingArea endPos="244.38769621508158" friendlyPos="true" id="237905771" lane="34750079#2_1" roadsideCapacity="1000" startPos="234.38769621508158" />
    <parkingArea endPos="256.72484414720884" friendlyPos="true" id="237905772" lane="34750079#2_1" roadsideCapacity="1000" startPos="246.72484414720887" />
    <parkingArea endPos="97.46700279109878" friendlyPos="true" id="241130278" lane="104709807#0_1" roadsideCapacity="1000" startPos="87.46700279109878" />
    <parkingArea endPos="61.398383941186474" friendlyPos="true" id="245858166" lane="-41050375#6_1" roadsideCapacity="1000" startPos="51.398383941186474" />
    <parkingArea endPos="49.460689893434434" friendlyPos="true" id="246492159" lane="-41050375#1_1" roadsideCapacity="1000" startPos="39.460689893434434" />
    <parkingArea endPos="24.78521718273672" friendlyPos="true" id="246494609" lane="-41050375#3_1" roadsideCapacity="1000" startPos="14.78521718273672" />
    <parkingArea endPos="259.80518591621916" friendlyPos="true" id="247804669" lane="98462787_1" roadsideCapacity="1000" startPos="249.80518591621916" />
    <parkingArea endPos="20.0" friendlyPos="true" id="275000250" lane="-86983961#0_1" roadsideCapacity="1000" startPos="10.0" />
    <parkingArea endPos="36.19" friendlyPos="true" id="279126940" lane="-325377870#4_1" roadsideCapacity="1000" startPos="26.189999999999998" />
    <parkingArea endPos="94.53870161856244" friendlyPos="true" id="288207560" lane="-845855186#2_1" roadsideCapacity="1000" startPos="84.53870161856244" />
    <parkingArea endPos="24.32" friendlyPos="true" id="288207583" lane="-845855186#3_1" roadsideCapacity="1000" startPos="14.32" />
    <parkingArea endPos="38.10388290153461" friendlyPos="true" id="288357881" lane="-845855186#2_1" roadsideCapacity="1000" startPos="28.10388290153461" />
    <parkingArea endPos="738.34" friendlyPos="true" id="293244805" lane="-27273765#1_1" roadsideCapacity="1000" startPos="728.34" />
    <parkingArea endPos="29.55635446014839" friendlyPos="true" id="304003420" lane="304003531_1" roadsideCapacity="1000" startPos="19.55635446014839" />
    <parkingArea endPos="159.32373575595324" friendlyPos="true" id="304004370" lane="25945952#1_1" roadsideCapacity="1000" startPos="149.32373575595324" />
    <parkingArea endPos="25.68" friendlyPos="true" id="317948689" lane="370552765#1_1" roadsideCapacity="1000" startPos="15.68" />
    <parkingArea endPos="69.06" friendlyPos="true" id="318004752" lane="60253088#4_1" roadsideCapacity="1000" startPos="59.06" />
    <parkingArea endPos="119.44006209359834" friendlyPos="true" id="318004754" lane="60253081#0_1" roadsideCapacity="1000" startPos="109.44006209359834" />
    <parkingArea endPos="23.815684615403562" friendlyPos="true" id="320182978" lane="175256606_1" roadsideCapacity="1000" startPos="13.815684615403562" />
    <parkingArea endPos="20.0" friendlyPos="true" id="337326714" lane="159818666#13_1" roadsideCapacity="1000" startPos="10.0" />
    <parkingArea endPos="50.66" friendlyPos="true" id="337326907" lane="-85445864#1_1" roadsideCapacity="1000" startPos="40.66" />
    <parkingArea endPos="20.649838146167255" friendlyPos="true" id="337327120" lane="-85445864#0_1" roadsideCapacity="1000" startPos="10.649838146167253" />
    <parkingArea endPos="110.47040246988777" friendlyPos="true" id="337332400" lane="-85445864#0_1" roadsideCapacity="1000" startPos="100.47040246988777" />
    <parkingArea endPos="20.900797099912374" friendlyPos="true" id="337523537" lane="-25805454_1" roadsideCapacity="1000" startPos="10.900797099912372" />
    <parkingArea endPos="40.47174604042976" friendlyPos="true" id="337744910" lane="151590005#3_1" roadsideCapacity="1000" startPos="30.471746040429757" />
    <parkingArea endPos="35.378454741083885" friendlyPos="true" id="337745014" lane="151590005#3_1" roadsideCapacity="1000" startPos="25.37845474108389" />
    <parkingArea endPos="30.340230287439063" friendlyPos="true" id="339235071" lane="26246582#0_1" roadsideCapacity="1000" startPos="20.340230287439063" />
    <parkingArea endPos="51.56930583338993" friendlyPos="true" id="341039979" lane="41890721#1_1" roadsideCapacity="1000" startPos="41.56930583338993" />
    <parkingArea endPos="43.55" friendlyPos="true" id="341040291" lane="30610468#1_1" roadsideCapacity="1000" startPos="33.55" />
    <parkingArea endPos="20.0" friendlyPos="true" id="341040293" lane="30610468#2_1" roadsideCapacity="1000" startPos="10.0" />
    <parkingArea endPos="20.0" friendlyPos="true" id="341375739" lane="-680402431#1_0" roadsideCapacity="1000" startPos="10.0" />
    <parkingArea endPos="34.13948397640314" friendlyPos="true" id="371177009" lane="30610466#1_1" roadsideCapacity="1000" startPos="24.13948397640314" />
    <parkingArea endPos="193.94" friendlyPos="true" id="374564744" lane="244486738#0_1" roadsideCapacity="1000" startPos="183.94" />
    <parkingArea endPos="33.41" friendlyPos="true" id="374564924" lane="50463828#1_1" roadsideCapacity="1000" startPos="23.409999999999997" />
    <parkingArea endPos="47.56" friendlyPos="true" id="384041760" lane="25945948#2_1" roadsideCapacity="1000" startPos="37.56" />