<?xml version="1.0" encoding="UTF-8"?>
<!-- generated on 2022-05-04 15:51:55.797383 by netdiff.py v1_13_0+0032-2db5028af55
  options: miv.net.xml miv2.net.xml netpatch\patch_A391_AS_Lehndorf -g
-->
<tlLogics version="1.9" xmlns:xsi="http://www.w3.org/2001/XMLSchema-instance" xsi:noNamespaceSchemaLocation="http://sumo.dlr.de/xsd/tllogic_file.xsd">
    <!-- Deleted Elements -->
    <!-- implicit via changed node type: <delete id="966749886" programID="0"/> -->
    <!-- implicit via changed node type: <delete id="A391_AS_Weststadt2" programID="0"/> -->
    <delete from="8074181#0" fromLane="0" to="320858407" toLane="0" linkIndex="0" tl="966749886"/>
    <delete from="8074181#0" fromLane="1" to="320858407" toLane="1" linkIndex="1" tl="966749886"/>
    <!-- Created Elements -->
    <!-- Changed Elements -->
    <tlLogic id="A391_AS_Lehndorf_tl" programID="0" >
        <param key="jam-threshold:10522180#0_0" value="5"/>
        <param key="jam-threshold:10522180#0_1" value="5"/>
        <param key="jam-threshold:122164799#0_0" value="5"/>
        <param key="jam-threshold:122164799#0_1" value="5"/>
        <param key="jam-threshold:8074181#0_0" value="5"/>
        <param key="jam-threshold:8074181#0_1" value="5"/>
        <phase duration="10" maxDur="50" minDur="5" state="rrrrGGrrrrGGGrrrrGGrrrrGGG"/>
        <phase duration="4" state="rrrryyrrrryyyrrrrGGrrrryyy"/>
        <phase duration="10" maxDur="50" minDur="5" state="rrGGrrrrrrrrrrrrrGGGGGGrrr"/>
        <phase duration="4" state="rrGGrrrrrrrrrrrrryyGGGGrrr"/>
        <phase duration="20" maxDur="50" minDur="10" state="GGGGrrGGrrrrrGrrrrrGGGGrrr"/>
        <phase duration="4" state="yyyyrryyrrrrryrrrrryyyyrrr"/>
        <phase duration="20" maxDur="50" minDur="10" state="rrrrGGrrGGrrrrGGGrrrrrrGGG"/>
        <phase duration="4" state="rrrryyrryyrrrryyyrrrrrrGGG"/>
    </tlLogic>
    <!-- Created Elements -->
    <connection from="122164799#0" fromLane="0" to="30424059#0" toLane="1" linkIndex="4" tl="A391_AS_Lehndorf_tl"/>
    <connection from="122164799#0" fromLane="1" to="30424059#0" toLane="2" linkIndex="5" tl="A391_AS_Lehndorf_tl"/>
    <connection from="8074181#0" fromLane="0" to="30424059#0" toLane="0" linkIndex="2" tl="A391_AS_Lehndorf_tl"/>
    <connection from="8074181#0" fromLane="1" to="30424059#0" toLane="1" linkIndex="3" tl="A391_AS_Lehndorf_tl"/>
    <connection from="8074181#0" fromLane="1" to="30424059#0" toLane="2" linkIndex="3" tl="A391_AS_Lehndorf_tl"/>
    <!-- Changed Elements -->
    <connection from="10522180#0" fromLane="0" to="122164789#0" toLane="0" linkIndex="23" tl="A391_AS_Lehndorf_tl"/>
    <connection from="10522180#0" fromLane="0" to="122164799#0" toLane="0" linkIndex="24" tl="A391_AS_Lehndorf_tl"/>
    <connection from="10522180#0" fromLane="1" to="122164799#0" toLane="1" linkIndex="25" tl="A391_AS_Lehndorf_tl"/>
    <connection from="122164787#1" fromLane="0" to="296271622#1" toLane="0" linkIndex="10"/>
    <connection from="122164787#1" fromLane="1" to="296271622#1" toLane="1" linkIndex="11"/>
    <connection from="122164787#1" fromLane="1" to="296271622#1" toLane="2" linkIndex="12"/>
    <connection from="122164787#1" fromLane="2" to="83094952#0" toLane="0" linkIndex="13"/>
    <connection from="122164804#0" fromLane="0" to="296271622#1" toLane="0" linkIndex="6"/>
    <connection from="122164804#0" fromLane="0" to="296271622#1" toLane="1" linkIndex="7"/>
    <connection from="122164823#0" fromLane="0" to="296271622#1" toLane="0" linkIndex="14"/>
    <connection from="122164823#0" fromLane="1" to="296271622#1" toLane="1" linkIndex="15"/>
    <connection from="122164823#0" fromLane="1" to="296271622#1" toLane="2" linkIndex="16"/>
    <connection from="122164828#0" fromLane="0" to="122164820" toLane="0" linkIndex="8"/>
    <connection from="122164828#0" fromLane="1" to="122164820" toLane="1" linkIndex="9"/>
    <connection from="30424059#2" fromLane="0" to="30998233" toLane="0" linkIndex="17"/>
    <connection from="30424059#2" fromLane="1" to="30998233" toLane="1" linkIndex="18"/>
    <connection from="30424059#2" fromLane="2" to="104365620#1" toLane="0" linkIndex="19"/>
    <connection from="30424216#0" fromLane="0" to="122164789#0" toLane="0" linkIndex="20" tl="A391_AS_Lehndorf_tl"/>
    <connection from="30424216#0" fromLane="1" to="122164789#0" toLane="1" linkIndex="21" tl="A391_AS_Lehndorf_tl"/>
    <connection from="30424216#0" fromLane="1" to="122164799#0" toLane="1" linkIndex="22" tl="A391_AS_Lehndorf_tl"/>
</tlLogics>
