<?xml version="1.0" encoding="UTF-8"?>
<nodes version="1.1" xmlns:xsi="http://www.w3.org/2001/XMLSchema-instance" xsi:noNamespaceSchemaLocation="http://sumo.dlr.de/xsd/nodes_file.xsd">

    <join nodes="1797707620 1797707622 1797723249 1797723251 21402307 2941707328 3239587402 3239587403 3251469155 3251469157 3251469158 3251469160 3251469861 3251469862 3251469866 3251469867 3251469869 3251469872 3251469873 337790340 382464679 3887568673 3887568677 3887568678 3887568692 3906881082 50860512 5529912974 5529912975 5529912976 5529912977 5529912978 5529912979 5529912980 5529912981 655296111 655296129"/>
    <joinExclude nodes="21402306"/>


    <join nodes="26189982 262797983 262797995 28089474 302732738 3144419510 3144419511 3144419512 3144419513" id="A391_AS_Weststadt" type="traffic_light" tl="A391_AS_Weststadt"/>
    <node id="262797985" tl="A391_AS_Weststadt"/>
    <node id="28089476"  tl="A391_AS_Weststadt" type="traffic_light"/>
    <node id="262798000" tl="A391_AS_Weststadt"/>
    <node id="27978463"  tl="A391_AS_Weststadt" type="traffic_light"/>
    <joinExclude nodes="249296949"/>
    

    <join nodes="1365939799 1365939847 1365939849 382906637 966749888" id="A391_AS_Weststadt2" tl="A391_AS_Weststadt2" type="traffic_light"/>

    <!-- KennedyPlatz -->    
    <join nodes="3843771996 3843771997 3843772001 3843772003 3144373924 3360650652 5416395265" tl="KennedyPlatz" type="traffic_light"/>
    <join nodes="280598720 280598723 280598728 280598732 28902896 3188117066 3188117067 3188117068 1755789466 3144373921 3144373925 3144374929 50917756 50917758 50917924 5639247009 5639247008 3360650655 3360650656 " tl="KennedyPlatz" type="traffic_light"/>
    <join nodes="280598715 28114808 3144373899 3144373900 3144373897 5424756580 5424756579" tl="KennedyPlatz" type="traffic_light"/>
    <joinExclude nodes="28090300"/>
    <node id="28090300" tl="KennedyPlatz" type="traffic_light"/>
    <node id="251045694" type="priority"/>
    <join nodes="1289377242 1755789379 1755789393 26193612 275461622 3106556522 3144373880 3144373886 3144373888 3144373889 3155095027 3211302724 3228386963 3228386966 3288085912 3843771246 50917974 52753744 52753757 52753771 5424756609 5424756931 5424756933 5424756934 5424756945 5424756946 5424756947 5424756948" tl="KennedyPlatz_S" type="traffic_light"/>


    <join nodes="26154203 268401511 287216369 3160041276 3160041277 3160041278 324329718 324329720 324329721 324329723 566713884 59904253 6137452232 6137452256 6137452257 807266986"
        id="A392_AS_Hamburger" type="traffic_light" tl="A392_AS_Hamburger"/>
    <node id="21559570" tl="A392_AS_Hamburger"/>
    <node id="26154204" tl="A392_AS_Hamburger" type="traffic_light"/>
    <joinExclude nodes="1169223673 26154204 5671614371"/>
    <node id="268401509" type="priority"/>
    
    
    <join nodes="1582162279 1957249456 28449324 28449325 28449327 3153581354 3155095016 3155104120 3155104123 3155104124 3155104125 3155104129 3155104132 3155104135 3155104137 3155104138 3155104139 3155104143 3155104144 3155104145 3155104146 3155104147 3155104150 3155104153 3209822895 3209822896 3209822897 3209822899 3209822900 3209822901 3209822902 3213129186 34043482 3840808507 3840808508 3840815123 3840815124 51519935 51519940 5426362057 5426362058 5426362059 5426362068 5426362114 5426362115 5426362116 5426362117 5426362237 5426362240 5426362241 5426362242 5426362248 5426362249 5426362250 5426362251"
        id="B4_Wolfenbuetteler"/>
    
    <join nodes="1204081664 1365939757 1365939773 1365939809 1365939857 26153508 28115608 28115614 301224173 966749882 966749884 966749891 1365939735 1365939768 6052498178 248714091"
        id="A391_AS_Lehndorf" tl="A391_AS_Lehndorf_tl" type="traffic_light" shape="10.492736,52.272463 10.492768,52.272441 10.492805,52.272410 10.492882,52.272395 10.492986,52.272381 10.492958,52.272286 10.493222,52.272263 10.493206,52.272199 10.493171,52.272199 10.493155,52.272195 10.493142,52.272190 10.493130,52.272182 10.493120,52.272173 10.493037,52.272200 10.492751,52.272255 10.492673,52.272224 10.492614,52.272263 10.492550,52.272277 10.492481,52.272271 10.492407,52.272247 10.492329,52.272209 10.492247,52.272159 10.492213,52.272179 10.492173,52.272193 10.492107,52.272196 10.492020,52.272196 10.492019,52.272295 10.491832,52.272286 10.491916,52.272493 10.491965,52.272484 10.492003,52.272476 10.492035,52.272470 10.492066,52.272467 10.492103,52.272471 10.492150,52.272482 10.492167,52.272455 10.492430,52.272452 10.492506,52.272486 10.492543,52.272460 10.492580,52.272443 10.492618,52.272434 10.492657,52.272435 10.492696,52.272444"/>
    <joinExclude nodes="1365939940 1365939793 1365939677"/>

    <node id="59654717" tl="Rudolfplatz" type="traffic_light"/>
    <node id="26581513" tl="Rudolfplatz" type="traffic_light"/>
    <node id="337769798" tl="Rudolfplatz" type="traffic_light"/>
    <node id="26581511" tl="Rudolfplatz" type="traffic_light"/>
    <node id="59654716" tl="Rudolfplatz" type="traffic_light"/>


    <join nodes="28449356 308809869 308809873 309922829 309922837 309922869 3153585680 3153585681 3153585692 3153585695 3153585697 3153585699 3839995362 5424425342 5424425343 5424425350"
        id="HBF1" tl="HBF" type="traffic_light"/>
    <join nodes="28449355 308809864"
        id="HBF2" tl="HBF" type="traffic_light"/>
    <join nodes="28007010 309922871 309922873 3153585677 3153585685 3153585686 57749871" 
        id="HBF3" tl="HBF" type="traffic_light"/>


    <node id="28201743" keepClear="false"/>


    <join nodes="104171179 28142770 28298581 5448336392"
        id="Forschungskreuzung" type="traffic_light" tl="Forschungskreuzung"/>

    <!-- Lessingplatz -->
    <joinExclude nodes="26189998 251048978"/>
    <node id="26189998" tl="Lessingplatz" type="traffic_light"/>
    <node id="251048978" tl="Lessingplatz" type="traffic_light"/>
    
    
    <join nodes="1248442751 21430661" id="PeinerCeller" type="traffic_light"/>

    <!-- Humboldstr. Gliesmaroder -->
    <join nodes="1306026057 730445054" type="priority"/>
    <join nodes="1306026035 1306026045 1306026053 1306026058 1578503015 1578503020 28201772 3312512383 3312512384 3338276075 3338276076 362628929 5303024523 5303024524 5303024525 5303024526 5303024527 5303617619 5303618657 5303618658 5690103581 5690103582 5690103583 5690103585 5690103602 5690103603 5690103604 5690103605 5690103606 890353089" type="traffic_light" tl="HumboldGliesmaroder"/>
    
    <!-- BS-Süd Clover Intersection Off-Ramp(SW) -->
    <node id="218531598" type="priority"/>
    
    <!-- Hallestraße & Sachsendamm --> 
    <join nodes="36302008 218531433" id="Hallestrasse" type="traffic_light" tl="Hallestrasse"/>
    
    <!-- Güldenstraße & Celler Str. -->
    <join nodes="28201753 3404654746 3801335165 3801335168 3801335169 3971103761 443571987 444674414 468444782 5496878094 5496878095" id="Gueldenstr" type="traffic_light" tl="Gueldenstr"/>
    <join nodes="468186660 3404653526" type="priority"/>
    
    <!-- B1 & Rautheimer St-->
    <join nodes="1639808319 2716932560 2716932569 36161256" id="Rautheimer" type="traffic_light" tl="Rautheimer_B1"/>
    <joinExclude nodes="2586328921"/>
    
    <!-- Marienstift -->
    <join nodes="3288092770 50926794 5639064948 3362308308" id="Marienstift" type="traffic_light" tl="Marienstift"/>

    <!-- Sudetenstr. & Cellerstr. -->
    <join nodes="1393800666 1393800667 1393800685 1393800691 1393800697 1393800702 1393800713 1393800736 1393800739 1393800746 1393800751 1393800762 1393800766 1553377719 21416918 26153441 28462103 3256063807 3256063811 3256063815 3256063817 3256063818 3256063820 3256063822 3256063823 3256063825 3256063826 3256063827 3256063830 3399986161 52202963 90654809" id="Cellerstr" type="traffic_light" tl="Cellerstr"/>
        
    <!-- Sachsendamm -->
    <join nodes="1458867326 1467666132 1472237863 1472237864 218531149 28783842" type="priority"/>
    <join nodes="1300781583 218531146 218531174" type="priority"/>
    <join nodes="3157066789 51521088 1467666134 3157066793" id="Sachsendamm_W" type="traffic_light" tl="Sachsendamm_W"/>
    <join nodes="51521106 3158415682" id="Sachsendamm_E" type="traffic_light" tl="Sachsendamm_E"/>
    
    <!-- A391 & Hansestraße  West-->
    <join nodes="30263365 30268419 988809163" id="A391_Hansestrasse" type="traffic_light" tl="A391_Hansestrasse"/>
    <node id="988809156" tl="A391_Hansestrasse" type="traffic_light"/>
    <joinExclude nodes="988809154 988809147"/>

    <node id="988809154" keepClear="false"/>
    
    <!-- A391 & Hansestraße Ost -->
    <join nodes="2024466368 2024466372 5672014914 5672015564 5672015566 5672015567" id="A391_Hansestrasse_Ost" type="traffic_light" tl="A391_Hansestrasse_Ost"/>
    <node id="28097346" tl="A391_Hansestrasse_Ost" type="traffic_light"/>
    <joinExclude nodes="988784760"/>
    
    <!-- Daimlerstr -->
    <join nodes="1355332186 30263369" id="Daimlerstr" type="traffic_light" tl="Daimlerstr"/>
    
    <!-- Gifhorner & Hansestraße  -->
    <join nodes="30227278 5672015549 30323065" id="Gifhorner_Hansestrasse" type="traffic_light" tl="Gifhorner_Hansestrasse"/>
    
    <!-- Alte Waage  -->
    <join nodes="197509194 26154028 2757716855 2757716856 308742847 3142453692 3142453694 325214001 380479926 380479927 380479928 3833322969 3833322970 3833322972 4960261755 5496000109 5496000110 5496000534 5496000535 5496000536 5496000585" id="Alte_Waage" type="traffic_light" tl="Alte_Waage"/>
    <join nodes="2561691084 2561691092 308741253" type="priority"/>
    <joinExclude nodes="251043372 1363862021 856226571"/>
    
    <!-- Hagenmarkt & Bohlweg -->
    <join nodes="3404705479 3404705474 3404705476 5495778634 5495778637 5495778625 5495778638 5495778639 3142501385 5495778654 5495778635 119574138 3060809819 3142501383 59706394 119574141 26154034 280598666 280598673 280598675 280598679 280598682 3060814336 3142496718 3239609688 3239609689 3239609692 3309207646 34672421 3821578730 50886961 5495778636 5495778643 5495778655 5661266433 5661266434" id="Hagenmarkt_Bohlweg" type="traffic_light" tl="Hagenmarkt_Bohlweg"/>
    <joinExclude nodes="119574120 3821578726 5495778647 5495778644 119574125 119574130"/> 
    <node id="119574130" type="traffic_light" tl="Hagenmarkt_Bohlweg"/>
    <join nodes="2826430591 2826430592 2923937432 3142453719" type="traffic_light"/>
    
    <!-- Schloss -->
    <join nodes="50917832 5442472547 3142528973 3142528931 50917835 5442472300 5442472301 5442472546 3142528972 5442472303 5442472304 5442472305 5442472306 5442472540 5442472541 5442472542 2294584387 2294584389 280598652 28114791 28902888 28902897 3142528940 3142528942 3142528945 3142528950 3142528952 3142528953 3142528956 3142528958 3142528963 3142528967 3142528968 3142528969 3142528970 50917845 5442472530 5442472531 5442472532 5442472533 5442472534 5442472536 5442472537 5442472538" id="Schloss" type="traffic_light" tl="Schloss"/>
    <join nodes="251050941 28902891 273459765 280598736 280598739 3142528930 3142549218 3142549219 3142549222 3142549227 3142550434 3142550435 3142550438 3142550441 3405918913 3405918914 3405918915 3405918920 3405918926 3405918928 3405918929 3405918930 3405918931 50917710 50917718 52768448 5442472236 5442472237 5442472238 5442472239 5442472264 5442472265 5442488059 5442488060 5442488061 5442488062" id="Schloss_2" type="traffic_light" tl="Schloss_2"/>
    
    <!-- Münzstr. & Friedrich-W-Str -->
    <join nodes="251050932 3265483974" type="priority"/>
    
    <!-- Campestr -->
    <join nodes="3838936043 28089432 3209791987 3838936037 5416394091 5416394093 5416395134 5416395135 1859355730 27708374 3152829942 364174204 3838935998 3838936006 3838936012 3840761461 3840761462 3840761463 3840761464 3840761468 4026565755 51520991" id="Campestr" type="traffic_light" tl="Campestr"/>
    
    <!-- Leonhardplatz -->
    <join nodes="5458738453 251004546 2952513714 2952513715 2952513719 2952513721 2952513727 3152830237 3152830238 3152830240 3152830243 3152830244 3152830245 3152830246 3152830247 3152830248 3152830249 3152830250 3152830251 3152830252 3288000327 34043483 34043484 34043485 3840004955 50918032 5410803902 5414156521 5431163221 5431163222 5431163226 5431163227 5431163228 5431163237 5431163238 5458738452 5458738454 5458738455 5606716630 5639403652 5639403653 5639403654 5639403655 5639403656 5639403657 5639403658 5639403659" id="Leonhardplatz" type="traffic_light" tl="Leonhardplatz"/>
    

    <!-- Gesundheitsamt -->
    <join nodes="2525494051 260495765 26153440 2670997611 2757690505 310411291 3160041298 3160041299 3160041300 3160041301 3160041304 3160041306 3160041307 3160041308 3160041309 3160041312 3160041314 3160041316 36140139 4978291198 50097798 5463042474 5463042475" id="Gesundheitsamt" type="traffic_light" tl="Gesundheitsamt"/>
    <join nodes="2525494053 3160041317 3366613684 571767701" type="priority"/>
    
    <!-- An der Rothenburg -->
    <join nodes="2191838702 2191838703 28783763 416912989 416912990 416912991 59708269 59708272" id="Rothenburg" type="traffic_light" tl="Rothenburg"/>
    
    <!-- Cyriaksring -->
    <join nodes="26189989 26189990 28089464 28783756 3144421541 3144421542 59708185 59708186" id="Cyriaksring" type="traffic_light" tl="Cyriaksring"/>
    
    <!-- Willy-Brandt-Platz -->
    <join nodes="27733167 28007025 2952513729 318630605 3838936000 3838936026 3838936027 3838936029 3838936031" id="Willy-Brandt-Platz" type="traffic_light" tl="Willy-Brandt-Platz"/>
       
    <!-- Varrentrappstraße & Cellerstr. -->
    <join nodes="21559484 52202970 26153447 1393800769" id="Varrentrappstr" type="traffic_light" tl="Varrentrappstr"/>
    
    <!-- Pappelbergsiedlung -->
    <join nodes="2240166103 2295501910 2601024544 308801406" type="priority"/>
    
    <!-- Kallenwall & Europapl. -->
    <join nodes="30229820 3290544975 3290544979 3815832854 3815833357 3815833371 3815833373 30229821 30229836 3229631268 52780695 52780775 5689974659 5689974660 61377877" id="EuropaplatzN" type="traffic_light" tl="EuropaplatzN"/>
    <node id="3229631269" tl="EuropaplatzN" type="traffic_light"/>
    <node id="30229822" tl="EuropaplatzN" type="traffic_light"/>
    <node id="3278413000" type="priority"/>
    <node id="28089454" type="priority"/>   
    
    <!-- Europapl. & Adenauer -->
    <join nodes="52780791 1365387509 1365387545 3144404402 3882310981 3882310983 3882310984 3882310985 52780716 30229818 30229835 26189994 3229688645 280598747 280598750 3144404400 3144404401 3882310980"
        id="Europaplatz1" type="traffic_light" tl="Europaplatz"/>
    <node id="280598619" tl="Europaplatz" type="traffic_light"/>
    <node id="251121910" tl="Europaplatz" type="traffic_light"/>
    
    <!-- Kallenwall & F-Wilhelm-Platz -->
    <join nodes="1365387666 1365387678 1365387680 1365387699 2515650773 3144381718 3144381719 3144398491 3144398499 3144398501 3144398507 3144398508 3144398509 3144398510 3144398511 3144398512 3144398514 3290545017 52768313 5428418327 5428418328 5428418329 5428418330 5513480610 5513677293 5624121856 5697660250 5697660251" type="traffic_light"/>
    
    <!-- Wassertor & Bruchtorwall -->
    <join nodes="1365387624 1365387629 3144381713 382367057" type="traffic_light"/>
    
    <!-- Frankfurterstr & Adenauer -->
    <join nodes="5507950142 5507950143 5507950175 5507950176 1365387394 3144404391 3144404394 1365387261 1365387264 1365387282 1365387297 1365387301 1365387313 1365387357 1365387396 280598742 313564739 3144404392 3144404393 3144404395 3319402045 5507950141 5507950144 5507950151 5507950162 5507950163 5507950172 5507950173 5507950180 5507950181 5511905631" type="traffic_light" tl="Frankfurterstr"/>
    <joinExclude nodes="5507950148"/> 
    <node id="5507950148" tl="Frankfurterstr" type="traffic_light"/>

    <!-- Wassertor & Bruchtorwall -->
    <join nodes="5431163239 3786025606 6150360682" type="priority"/>
    <join nodes="5542125980 5542125990 5542125991 5606457780 6071616364 6150360683 3362307588" type="traffic_light"/>
    
    <!-- Ackerstraße -->
    <join nodes="3786025597 57883770 3362307570 5513188008" type="traffic_light"/>
    
    <!-- Helmstedter & Hauptgüterbahnhof -->
    <join nodes="2467934746 3362307545 3362307550 3362307557 348053548 3786025576 3786025578 3786025579 3786025580 3786025586 5297509821 5297509824 5653169619 5653169620 5708137303 2467934743 361447993 270296163 373308686 3362307554 5297502524 5297509822 3319201711 3414774979 5424246778 5424246779 5424246805 5424247834 5424247835 5428890016 3414774980 361449142" type="traffic_light"/>
    
    <!-- Hauptfriedhof -->
    <join nodes="3412405263 390337177 5708039340 5708039357 5708039348 5708039338" type="priority"/>
    <join nodes="252500077 3412405256 3414814703 5708039341 5708039342 3412405252" type="priority"/>
    
    <!-- Gliesmaroder Straße -->
    <join nodes="26193288 27557127 5690103607 5690103608 5690103609 5690103610" tl="Gliesmaroder" type="traffic_light"/>

    <!-- Gliesmaroder & Abtstraße -->
    <join nodes="5008436309 5530126715 5530126716 5530126717" type="traffic_light"/>
    
    <!-- Wendenmaschstraße & Am Wendenwehr -->
    <join nodes="3239587380 3239587383 34589715 34653749 3887578825 50854319 50875232 5506733877" type="traffic_light"/>
    
    <!-- Querumer Straße -->
    <join nodes="1814332339 253086445 280703204 280703205 28142788 28298515 3158539804 3158539805 3158539808 3158539810 3158539813 3280670227 3280670228 3280670233 3280670236 3280670237 3280670238 3280670240 3280670242 3280670243 3280670246 3280670248 3280670250 3280670255 4981046690" type="traffic_light"/>
    
    <!-- Messeweg -->
    <join nodes="27649898 3158539817 3158539818 3317411076 3317411097 34043444" type="traffic_light"/>
    
    <!-- Petzvalstraße -->
    <join nodes="26581556 28298484 3158539845 3158539846" type="traffic_light"/>
    
    <!-- Moorhüttenweg -->
    <join nodes="26581558 28298469 3158540061 3158540062" type="traffic_light"/>
    
    <!-- Berliner Heerstraße -->
    <join nodes="3158540069 3158540071 3158540072 3158540073 60636121" type="traffic_light"/>
    
    <!-- Ernst-Böhme-Straße & Hafenstr -->
    <join nodes="3030069970 30320166 842199485" type="priority"/>
    
    <!-- Hansestraße-Mitte -->
    <join nodes="247834765 247835079 248483855 30263387 5001818628" type="traffic_light"/>
    
    <!-- Siegfriedstraße -->
    <join nodes="3352082627 50044368 50073330 5428483059" type="traffic_light"/>
    
    <!-- Museumstraße -->
    <join nodes="3151786705 3151786706 3151786708 3400146007 3400146008 3400146009 34672430 35913244 5293458213" type="traffic_light"/>
    <join nodes="5789927153 50917915" type="priority"/>
    
    <!-- Georg-Eckert-Straße & Ackerhof -->
    <join nodes="251607648 3151786695 3151786696 35806051" type="traffic_light"/>
    
    <!-- Magnitorwall -->
    <join nodes="3151786679 3151786680 34672433 5653296847" type="priority"/>
    <join nodes="3151786668 3151786669 34672436" type="priority"/>
    <join nodes="3151786661 3151786662 34672444" type="priority"/>
    <join nodes="3151780956 35512808" type="priority"/>
    <join nodes="3151780955 34672448" type="priority"/>
    <join nodes="3151780949 34672452" type="priority"/>
    <join nodes="252154530 252183566 5653228898 5653228899" type="priority"/>
    
    <join nodes="35512052 5690103617 5690103618" type="traffic_light"/>
    <join nodes="5653390239 5653390240 59706403 1129461120" type="traffic_light"/>
    <join nodes="26153694 5653387104 5653387105" type="traffic_light"/>
    
    <join nodes="2191838588 2191838598 255882689 302732744 59708262 59708263" type="traffic_light"/>
    
    <join nodes="3319201696 360656324 5424248207" type="priority"/>
      
    <join nodes="624456987 280598753 3144404381 84794517" type="traffic_light"/>
      
    <join nodes="3239586723 50886937 27557091" type="priority"/>
      
    <join nodes="21409008 5269655663" type="priority"/>
      
    <join nodes="59886780 3351857307 3351857308 2676123005" type="priority"/>
      
    <join nodes="5671843417 3160041326 3160041327 1335061487" type="priority"/>
      
    <!-- Elbestraße & Emsstraße -->
    <join nodes="2506851330 416848947 2506851416 59708189 27744507 416848943 28099079 416848946" type="traffic_light"/>
      
    <!-- Am Bockelsberg & Wendebrück -->
    <joinExclude nodes="2242499133 2024466460 2024466448 2242499125"/>
    <node id="26121229" tl="Wenden" type="traffic_light"/>
    <node id="2242499133" tl="Wenden" type="traffic_light"/>
    <node id="2024466460" tl="Wenden" type="traffic_light"/>
      
    <!-- Hamburger Str. -->
    <join nodes="3234417139 3234417140 3234417141 1687237064" type="traffic_light"/>
    
        
    <!-- Emsstraße -->
    <join nodes="255864423 27978474 255864438 3144419501 27978494 416838797 3144419500 59708187" type="traffic_light"/>
    
    <!-- Böcklerstraße &  -->
    <join nodes="28449317 36241489 3153585665 3153585666" type="traffic_light"/>
    
    <node id="26153502" type="priority"/>
    <node id="6052498180" keepClear="false"/>
    <node id="1365939728" keepClear="false"/>
    <node id="28115602" keepClear="false"/>
    <node id="1365939698" type="zipper"/>
    
    <!-- Lehmanger / Donaustraße (platform dependent join behavior) -->
    <join nodes="2191930500 2191930501 27376105 416911807 416911812 59708216" type="traffic_light"/>
    
    <node id="28115611" type="priority"/>
    <node id="966749886" type="traffic_light"/>
    <node id="1365939684" type="traffic_light" tl="A391_AS_Lehndorf_tl"/>
</nodes>
