<?xml version="1.0" encoding="UTF-8"?>
<!-- generated on 2022-05-12 13:08:34.446710 by netdiff.py v1_13_0+0193-6cca0ae1002
  options: netpatch\miv.net.xml miv.net.xml.gz netpatch\patch_A391_AS_Lehndorf -g
-->
<tlLogics version="1.9" xmlns:xsi="http://www.w3.org/2001/XMLSchema-instance" xsi:noNamespaceSchemaLocation="http://sumo.dlr.de/xsd/tllogic_file.xsd">
    <!-- Deleted Elements -->
    <!-- implicit via changed node type: <delete id="966749886" programID="0"/> -->
    <!-- implicit via changed node type: <delete id="A391_AS_Weststadt2" programID="0"/> -->
    <delete from="8074181#0" fromLane="0" to="320858407" toLane="0" linkIndex="0" tl="966749886"/>
    <delete from="8074181#0" fromLane="1" to="320858407" toLane="1" linkIndex="1" tl="966749886"/>
    <!-- Created Elements -->
    <!-- Changed Elements -->
    <tlLogic id="A391_AS_Lehndorf_tl" programID="0" >
        <param key="jam-threshold" value="5"/>
        <phase duration="10" state="rrrrGGrrrrGGGrrrrGGrrrrGGG" maxDur="50" minDur="5"/>
        <phase duration="4"  state="rrrryyrrrryyyrrrrGGrrrryyy"/>
        <phase duration="10" state="rrGGrrGGrrrrrrrrrGGGGGGrrr" maxDur="50" minDur="5"/>
        <phase duration="4"  state="rrGGrrGGrrrrrrrrryyGGGGrrr"/>
        <phase duration="20" state="GGGGrrGGrrrrrGrrrrrGGGGrrr" maxDur="50" minDur="10"/>
        <phase duration="4"  state="yyyyrryyrrrrryrrrrryGGGrrr"/>
        <phase duration="20" state="rrrrGGrrGGrrrrGGGrrrGGGrrr" maxDur="50" minDur="10"/>
        <phase duration="4"  state="rrrryyrryyrrrryyyrrryyyrrr"/>
    </tlLogic>
    <!-- Created Elements -->
    <connection from="122164799#0" fromLane="0" to="30424059#0" toLane="1" linkIndex="4" tl="A391_AS_Lehndorf_tl"/>
    <connection from="122164799#0" fromLane="1" to="30424059#0" toLane="2" linkIndex="5" tl="A391_AS_Lehndorf_tl"/>
    <connection from="8074181#0" fromLane="0" to="30424059#0" toLane="0" linkIndex="2" tl="A391_AS_Lehndorf_tl"/>
    <connection from="8074181#0" fromLane="1" to="30424059#0" toLane="1" linkIndex="3" tl="A391_AS_Lehndorf_tl"/>
    <connection from="8074181#0" fromLane="1" to="30424059#0" toLane="2" linkIndex="3" tl="A391_AS_Lehndorf_tl"/>
    <!-- Changed Elements -->
    <connection from="10522180#0" fromLane="0" to="122164789#0" toLane="0" linkIndex="23" tl="A391_AS_Lehndorf_tl"/>
    <connection from="10522180#0" fromLane="0" to="122164799#0" toLane="0" linkIndex="24" tl="A391_AS_Lehndorf_tl"/>
    <connection from="10522180#0" fromLane="1" to="122164799#0" toLane="1" linkIndex="25" tl="A391_AS_Lehndorf_tl"/>
    <connection from="122164787#1" fromLane="0" to="296271622#1" toLane="0" linkIndex="10" tl="A391_AS_Lehndorf_tl"/>
    <connection from="122164787#1" fromLane="1" to="296271622#1" toLane="1" linkIndex="11" tl="A391_AS_Lehndorf_tl"/>
    <connection from="122164787#1" fromLane="1" to="296271622#1" toLane="2" linkIndex="12" tl="A391_AS_Lehndorf_tl"/>
    <connection from="122164787#1" fromLane="2" to="83094952#0" toLane="0" linkIndex="13" tl="A391_AS_Lehndorf_tl"/>
    <connection from="122164804#0" fromLane="0" to="296271622#1" toLane="0" linkIndex="6" tl="A391_AS_Lehndorf_tl"/>
    <connection from="122164804#0" fromLane="0" to="296271622#1" toLane="1" linkIndex="7" tl="A391_AS_Lehndorf_tl"/>
    <connection from="122164823#0" fromLane="0" to="296271622#1" toLane="0" linkIndex="14" tl="A391_AS_Lehndorf_tl"/>
    <connection from="122164823#0" fromLane="1" to="296271622#1" toLane="1" linkIndex="15" tl="A391_AS_Lehndorf_tl"/>
    <connection from="122164823#0" fromLane="1" to="296271622#1" toLane="2" linkIndex="16" tl="A391_AS_Lehndorf_tl"/>
    <connection from="122164828#0" fromLane="0" to="122164820" toLane="0" linkIndex="8" tl="A391_AS_Lehndorf_tl"/>
    <connection from="122164828#0" fromLane="1" to="122164820" toLane="1" linkIndex="9" tl="A391_AS_Lehndorf_tl"/>
    <connection from="30424059#2" fromLane="0" to="30998233" toLane="0" linkIndex="17" tl="A391_AS_Lehndorf_tl"/>
    <connection from="30424059#2" fromLane="1" to="30998233" toLane="1" linkIndex="18" tl="A391_AS_Lehndorf_tl"/>
    <connection from="30424059#2" fromLane="2" to="104365620#1" toLane="0" linkIndex="19" tl="A391_AS_Lehndorf_tl"/>
    <connection from="30424216#0" fromLane="0" to="122164789#0" toLane="0" linkIndex="20" tl="A391_AS_Lehndorf_tl"/>
    <connection from="30424216#0" fromLane="1" to="122164789#0" toLane="1" linkIndex="21" tl="A391_AS_Lehndorf_tl"/>
    <connection from="30424216#0" fromLane="1" to="122164799#0" toLane="1" linkIndex="22" tl="A391_AS_Lehndorf_tl"/>
</tlLogics>
