<edges version="1.1" xmlns:xsi="http://www.w3.org/2001/XMLSchema-instance" xsi:noNamespaceSchemaLocation="http://sumo.dlr.de/xsd/edgediff_file.xsd">
    <delete id="-24598011"/>
    <delete id="24598011"/>
    <delete id="24598013"/>
    <delete id="264644472"/>
    <delete id="30780609"/>
    <delete id="663285772"/>
    <delete id="663285773"/>
    <delete id="8080942"/>
</edges>
