<?xml version="1.0" encoding="UTF-8"?>
<!-- generated on 2022-04-28 14:39:29.160096 by netdiff.py v1_12_0+2361-fcdcfe2981f
  options: miv.net.xml miv2.net.xml patch_A391_AS_Lehndorf -g
-->
<nodes version="1.9" xmlns:xsi="http://www.w3.org/2001/XMLSchema-instance" xsi:noNamespaceSchemaLocation="http://sumo.dlr.de/xsd/nodes_file.xsd">
    <!-- Deleted Elements -->
    <delete id="90655487"/>
    <!-- Created Elements -->
    <!-- Changed Elements -->
    <node id="A391_AS_Lehndorf" shape="10.492192,52.272492 10.492222,52.272470 10.492430,52.272452 10.492506,52.272486 10.492543,52.272460 10.492580,52.272443 10.492618,52.272434 10.492657,52.272435 10.492696,52.272444 10.492736,52.272463 10.492768,52.272441 10.492753,52.272420 10.492790,52.272404 10.492829,52.272397 10.492880,52.272391 10.492862,52.272205 10.492830,52.272199 10.492835,52.272177 10.492756,52.272145 10.492690,52.272209 10.492614,52.272246 10.492530,52.272259 10.492440,52.272247 10.492346,52.272214 10.492250,52.272161 10.492220,52.272184 10.492177,52.272196 10.492111,52.272197 10.492022,52.272196 10.492020,52.272278 10.491885,52.272413 10.491916,52.272493 10.491984,52.272484 10.492044,52.272479 10.492095,52.272478 10.492136,52.272479 10.492169,52.272484"/>
</nodes>
