<?xml version="1.0" encoding="UTF-8"?>
<!-- generated on 2022-05-12 13:08:29.142604 by netdiff.py v1_13_0+0193-6cca0ae1002
  options: netpatch\miv.net.xml miv.net.xml.gz netpatch\patch_A391_AS_Lehndorf -g
-->
<edges version="1.9" xmlns:xsi="http://www.w3.org/2001/XMLSchema-instance" xsi:noNamespaceSchemaLocation="http://sumo.dlr.de/xsd/edgediff_file.xsd">
    <!-- Deleted Elements -->
    <delete id="320858407"/>
    <delete id="320858419"/>
    <!-- Created Elements -->
    <!-- Changed Elements -->
    <edge id="10522180#0" shape="10.489708,52.272799 10.489946,52.272763 10.490128,52.272713 10.490272,52.272667 10.490423,52.272614 10.490523,52.272569 10.490592,52.272534 10.490801,52.272390"/>
    <edge id="10522191#0" shape="10.491786,52.272168 10.491884,52.272144 10.491928,52.272107 10.491951,52.272068 10.491965,52.272041 10.491969,52.272004 10.491972,52.271963 10.491972,52.271930 10.491897,52.271864"/>
    <edge id="122164769#0" shape="10.491545,52.272221 10.491604,52.272267 10.491635,52.272288 10.491657,52.272305 10.491667,52.272326 10.491681,52.272347 10.491684,52.272368 10.491681,52.272394 10.491664,52.272428"/>
    <edge id="122164789#0" shape="10.490801,52.272390 10.490557,52.272280 10.490525,52.272267 10.490288,52.272171"/>
    <edge id="122164799#0" shape="10.490801,52.272390 10.490902,52.272343 10.490989,52.272304 10.491067,52.272274 10.491155,52.272245 10.491217,52.272232 10.491347,52.272210" to="26153502"/>
    <edge id="30424059#1" shape="10.491547,52.272207 10.491756,52.272214"/>
    <edge id="30424059#2" shape="10.491788,52.272231 10.492009,52.272240"/>
    <edge id="30424216#0" shape="10.491512,52.272503 10.491389,52.272511 10.491322,52.272512 10.491252,52.272508 10.491159,52.272497 10.491088,52.272486 10.491032,52.272473 10.490946,52.272447 10.490860,52.272417 10.490801,52.272390"/>
    <edge id="499157739" shape="10.516820,52.291631 10.517086,52.291639 10.517710,52.291675 10.517780,52.291679 10.518038,52.291693"/>
    <edge id="8035087#0" shape="10.553174,52.289875 10.553444,52.289858 10.553612,52.289854 10.553702,52.289852 10.553838,52.289880"/>
    <edge id="8074181#0" shape="10.489775,52.272029 10.490064,52.272074 10.490177,52.272088 10.490281,52.272107 10.490513,52.272136 10.490612,52.272148 10.490747,52.272161 10.491015,52.272184 10.491318,52.272190" to="26153502"/>
</edges>
