<edges version="1.1" xmlns:xsi="http://www.w3.org/2001/XMLSchema-instance" xsi:noNamespaceSchemaLocation="http://sumo.dlr.de/xsd/edgediff_file.xsd">
    <!-- Merge Tram line 3 and Cars lane -->
    <delete id="308954431#3"/>
    <delete id="308954431#4"/>
    <delete id="308954431#5"/>
    <delete id="308954432#2"/>
    <delete id="308954432#3"/>
    <delete id="308954432#6"/>
    <delete id="308954432#7"/>
    <delete id="308954432#9"/>
    <delete id="310432387#10"/>
    <delete id="310432387#25"/>
    <delete id="325737559#0"/>
    <delete id="325737559#22"/>
    <edge id="-206391414#0">
        <lane index="0" disallow="pedestrian rail_urban rail rail_electric rail_fast ship"/>
    </edge>
    <edge id="-206391414#1">
        <lane index="0" disallow="pedestrian rail_urban rail rail_electric rail_fast ship"/>
    </edge>
    <edge id="-206391414#2">
        <lane index="0" disallow="pedestrian rail_urban rail rail_electric rail_fast ship"/>
    </edge>
    <edge id="-206498907#0">
        <lane index="0" disallow="pedestrian rail_urban rail rail_electric rail_fast ship"/>
    </edge>
    <edge id="-206498907#1">
        <lane index="0" disallow="pedestrian rail_urban rail rail_electric rail_fast ship"/>
    </edge>
    <edge id="-206498907#2">
        <lane index="0" disallow="pedestrian rail_urban rail rail_electric rail_fast ship"/>
    </edge>
    <edge id="-24358063#0">
        <lane index="0" disallow="pedestrian rail_urban rail rail_electric rail_fast ship"/>
    </edge>
    <edge id="-24396489#2">
        <lane index="0" disallow="pedestrian rail_urban rail rail_electric rail_fast ship"/>
    </edge>
    <edge id="-24396489#3">
        <lane index="0" disallow="pedestrian rail_urban rail rail_electric rail_fast ship"/>
    </edge>
    <edge id="-25290651">
        <lane index="0" disallow="pedestrian rail_urban rail rail_electric rail_fast ship"/>
    </edge>
    <edge id="-30348115#0">
        <lane index="1" disallow="pedestrian rail_urban rail rail_electric rail_fast ship"/>
    </edge>
    <edge id="-30348115#2">
        <lane index="1" disallow="pedestrian rail_urban rail rail_electric rail_fast ship"/>
    </edge>
    <edge id="-30348115#1">
        <lane index="1" disallow="pedestrian rail_urban rail rail_electric rail_fast ship"/>
    </edge>
    <edge id="-320041056#0">
        <lane index="0" disallow="pedestrian rail_urban rail rail_electric rail_fast ship"/>
    </edge>
    <edge id="-320041056#1">
        <lane index="0" disallow="pedestrian rail_urban rail rail_electric rail_fast ship"/>
    </edge>
    <edge id="-33049407#0">
        <lane index="0" disallow="pedestrian rail_urban rail rail_electric rail_fast ship"/>
    </edge>
    <edge id="-33049407#1">
        <lane index="0" disallow="pedestrian rail_urban rail rail_electric rail_fast ship"/>
    </edge>
    <edge id="-33049407#2">
        <lane index="0" disallow="pedestrian rail_urban rail rail_electric rail_fast ship"/>
    </edge>
    <edge id="-33049407#4">
        <lane index="0" disallow="pedestrian rail_urban rail rail_electric rail_fast ship"/>
    </edge>
    <edge id="-33049407#5">
        <lane index="0" disallow="pedestrian rail_urban rail rail_electric rail_fast ship"/>
    </edge>
    <edge id="-4364829#0">
        <lane index="0" disallow="pedestrian rail_urban rail rail_electric rail_fast ship"/>
    </edge>
    <edge id="-4364829#1">
        <lane index="0" disallow="pedestrian rail_urban rail rail_electric rail_fast ship"/>
    </edge>
    <edge id="-4364829#2">
        <lane index="0" disallow="pedestrian rail_urban rail rail_electric rail_fast ship"/>
    </edge>
    <edge id="-4364829#3">
        <lane index="0" disallow="pedestrian rail_urban rail rail_electric rail_fast ship"/>
    </edge>
    <edge id="-4364829#4">
        <lane index="0" disallow="pedestrian rail_urban rail rail_electric rail_fast ship"/>
    </edge>
    <edge id="-4364829#5">
        <lane index="0" disallow="pedestrian rail_urban rail rail_electric rail_fast ship"/>
    </edge>
    <edge id="-4364829#6">
        <lane index="0" disallow="pedestrian rail_urban rail rail_electric rail_fast ship"/>
    </edge>
    <edge id="-4364829#7">
        <lane index="0" disallow="pedestrian rail_urban rail rail_electric rail_fast ship"/>
    </edge>
    <edge id="-4364829#8">
        <lane index="0" disallow="pedestrian rail_urban rail rail_electric rail_fast ship"/>
    </edge>
    <edge id="-501199064#0">
        <lane index="0" disallow="pedestrian rail_urban rail rail_electric rail_fast ship"/>
    </edge>
    <edge id="-501199064#1">
        <lane index="0" disallow="pedestrian rail_urban rail rail_electric rail_fast ship"/>
    </edge>
    <edge id="-501199064#2">
        <lane index="0" disallow="pedestrian rail_urban rail rail_electric rail_fast ship"/>
    </edge>
    <edge id="-505849257">
        <lane index="0" disallow="pedestrian rail_urban rail rail_electric rail_fast ship"/>
    </edge>
    <edge id="-505849258">
        <lane index="0" disallow="pedestrian rail_urban rail rail_electric rail_fast ship"/>
    </edge>
    <edge id="-505849259#0">
        <lane index="0" disallow="pedestrian rail_urban rail rail_electric rail_fast ship"/>
    </edge>
    <edge id="-505849259#1">
        <lane index="0" disallow="pedestrian rail_urban rail rail_electric rail_fast ship"/>
    </edge>
    <edge id="-505849259#2">
        <lane index="0" disallow="pedestrian rail_urban rail rail_electric rail_fast ship"/>
    </edge>
    <edge id="-5059316#0">
        <lane index="0" disallow="pedestrian rail_urban rail rail_electric rail_fast ship"/>
    </edge>
    <edge id="-5059316#1">
        <lane index="0" disallow="pedestrian rail_urban rail rail_electric rail_fast ship"/>
    </edge>
    <edge id="-5059316#2">
        <lane index="0" disallow="pedestrian rail_urban rail rail_electric rail_fast ship"/>
    </edge>
    <edge id="-56816465#0">
        <lane index="0" disallow="pedestrian rail_urban rail rail_electric rail_fast ship"/>
    </edge>
    <edge id="-56816465#1">
        <lane index="0" disallow="pedestrian rail_urban rail rail_electric rail_fast ship"/>
    </edge>
    <edge id="-56816465#2">
        <lane index="0" disallow="pedestrian rail_urban rail rail_electric rail_fast ship"/>
    </edge>
    <edge id="-56816465#3">
        <lane index="0" disallow="pedestrian rail_urban rail rail_electric rail_fast ship"/>
    </edge>
    <edge id="-59507511#0">
        <lane index="0" disallow="pedestrian rail_urban rail rail_electric rail_fast ship"/>
    </edge>
    <edge id="-97554509">
        <lane index="0" disallow="pedestrian rail_urban rail rail_electric rail_fast ship"/>
    </edge>
    <edge id="115653146#0">
        <lane index="0" disallow="pedestrian rail_urban rail rail_electric rail_fast ship"/>
    </edge>
    <edge id="115653146#1">
        <lane index="0" disallow="pedestrian rail_urban rail rail_electric rail_fast ship"/>
    </edge>
    <edge id="115653146#2">
        <lane index="0" disallow="pedestrian rail_urban rail rail_electric rail_fast ship"/>
    </edge>
    <edge id="115653146#3">
        <lane index="0" disallow="pedestrian rail_urban rail rail_electric rail_fast ship"/>
    </edge>
    <edge id="115653146#4">
        <lane index="0" disallow="pedestrian rail_urban rail rail_electric rail_fast ship"/>
    </edge>
    <edge id="115653146#5">
        <lane index="0" disallow="pedestrian rail_urban rail rail_electric rail_fast ship"/>
    </edge>
    <edge id="115653150#2">
        <lane index="0" disallow="pedestrian rail_urban rail rail_electric rail_fast ship"/>
    </edge>
    <edge id="115653150#3">
        <lane index="0" disallow="pedestrian rail_urban rail rail_electric rail_fast ship"/>
    </edge>
    <edge id="206391415">
        <lane index="0" disallow="pedestrian rail_urban rail rail_electric rail_fast ship"/>
    </edge>
    <edge id="147688823#0">
        <lane index="0" disallow="pedestrian rail_urban rail rail_electric rail_fast ship"/>
    </edge>
    <edge id="147688823#1">
        <lane index="0" disallow="pedestrian rail_urban rail rail_electric rail_fast ship"/>
    </edge>
    <edge id="147688823#2">
        <lane index="0" disallow="pedestrian rail_urban rail rail_electric rail_fast ship"/>
    </edge>
    <edge id="191875414#3">
        <lane index="0" disallow="pedestrian rail_urban rail rail_electric rail_fast ship"/>
    </edge>
    <edge id="206391414#0">
        <lane index="0" disallow="pedestrian rail_urban rail rail_electric rail_fast ship"/>
    </edge>
    <edge id="206391414#1">
        <lane index="0" disallow="pedestrian rail_urban rail rail_electric rail_fast ship"/>
    </edge>
    <edge id="206391414#2">
        <lane index="0" disallow="pedestrian rail_urban rail rail_electric rail_fast ship"/>
    </edge>
    <edge id="206391417#0">
        <lane index="0" disallow="pedestrian rail_urban rail rail_electric rail_fast ship"/>
    </edge>
    <edge id="206391417#1">
        <lane index="0" disallow="pedestrian rail_urban rail rail_electric rail_fast ship"/>
    </edge>
    <edge id="206391417#2">
        <lane index="0" disallow="pedestrian rail_urban rail rail_electric rail_fast ship"/>
    </edge>
    <edge id="206498907#0">
        <lane index="0" disallow="pedestrian rail_urban rail rail_electric rail_fast ship"/>
    </edge>
    <edge id="206498907#1">
        <lane index="0" disallow="pedestrian rail_urban rail rail_electric rail_fast ship"/>
    </edge>
    <edge id="206498907#2">
        <lane index="0" disallow="pedestrian rail_urban rail rail_electric rail_fast ship"/>
    </edge>
    <edge id="23251939#2">
        <lane index="0" disallow="pedestrian rail_urban rail rail_electric rail_fast ship"/>
    </edge>
    <edge id="24358063#0">
        <lane index="0" disallow="pedestrian rail_urban rail rail_electric rail_fast ship"/>
    </edge>
    <edge id="24396489#2">
        <lane index="0" disallow="pedestrian rail_urban rail rail_electric rail_fast ship"/>
    </edge>
    <edge id="24396489#3">
        <lane index="0" disallow="pedestrian rail_urban rail rail_electric rail_fast ship"/>
    </edge>
    <edge id="25290651">
        <lane index="0" disallow="pedestrian rail_urban rail rail_electric rail_fast ship"/>
    </edge>
    <edge id="30348115#0">
        <lane index="0" disallow="pedestrian rail_urban rail rail_electric rail_fast ship"/>
    </edge>
    <edge id="30348115#1">
        <lane index="0" disallow="pedestrian rail_urban rail rail_electric rail_fast ship"/>
    </edge>
    <edge id="30348115#2">
        <lane index="0" disallow="pedestrian rail_urban rail rail_electric rail_fast ship"/>
    </edge>
    <edge id="320041056#0">
        <lane index="0" disallow="pedestrian rail_urban rail rail_electric rail_fast ship"/>
    </edge>
    <edge id="320041056#1">
        <lane index="0" disallow="pedestrian rail_urban rail rail_electric rail_fast ship"/>
    </edge>
    <edge id="33049407#0">
        <lane index="0" disallow="pedestrian rail_urban rail rail_electric rail_fast ship"/>
    </edge>
    <edge id="33049407#1">
        <lane index="0" disallow="pedestrian rail_urban rail rail_electric rail_fast ship"/>
    </edge>
    <edge id="33049407#2">
        <lane index="0" disallow="pedestrian rail_urban rail rail_electric rail_fast ship"/>
    </edge>
    <edge id="33049407#4">
        <lane index="0" disallow="pedestrian rail_urban rail rail_electric rail_fast ship"/>
    </edge>
    <edge id="33049407#5">
        <lane index="0" disallow="pedestrian rail_urban rail rail_electric rail_fast ship"/>
    </edge>
    <edge id="4364829#0">
        <lane index="0" disallow="pedestrian rail_urban rail rail_electric rail_fast ship"/>
    </edge>
    <edge id="4364829#1">
        <lane index="0" disallow="pedestrian rail_urban rail rail_electric rail_fast ship"/>
    </edge>
    <edge id="4364829#2">
        <lane index="0" disallow="pedestrian rail_urban rail rail_electric rail_fast ship"/>
    </edge>
    <edge id="4364829#3">
        <lane index="0" disallow="pedestrian rail_urban rail rail_electric rail_fast ship"/>
    </edge>
    <edge id="4364829#4">
        <lane index="0" disallow="pedestrian rail_urban rail rail_electric rail_fast ship"/>
    </edge>
    <edge id="4364829#5">
        <lane index="0" disallow="pedestrian rail_urban rail rail_electric rail_fast ship"/>
    </edge>
    <edge id="4364829#6">
        <lane index="0" disallow="pedestrian rail_urban rail rail_electric rail_fast ship"/>
    </edge>
    <edge id="4364829#7">
        <lane index="0" disallow="pedestrian rail_urban rail rail_electric rail_fast ship"/>
    </edge>
    <edge id="4364829#8">
        <lane index="0" disallow="pedestrian rail_urban rail rail_electric rail_fast ship"/>
    </edge>
    <edge id="501199064#0">
        <lane index="1" disallow="pedestrian rail_urban rail rail_electric rail_fast ship"/>
    </edge>
    <edge id="501199064#1">
        <lane index="1" disallow="pedestrian rail_urban rail rail_electric rail_fast ship"/>
    </edge>
    <edge id="501199064#2">
        <lane index="1" disallow="pedestrian rail_urban rail rail_electric rail_fast ship"/>
    </edge>
    <edge id="505849257">
        <lane index="0" disallow="pedestrian rail_urban rail rail_electric rail_fast ship"/>
    </edge>
    <edge id="505849258">
        <lane index="0" disallow="pedestrian rail_urban rail rail_electric rail_fast ship"/>
    </edge>
    <edge id="505849259#0">
        <lane index="0" disallow="pedestrian rail_urban rail rail_electric rail_fast ship"/>
    </edge>
    <edge id="505849259#1">
        <lane index="0" disallow="pedestrian rail_urban rail rail_electric rail_fast ship"/>
    </edge>
    <edge id="505849259#2">
        <lane index="0" disallow="pedestrian rail_urban rail rail_electric rail_fast ship"/>
    </edge>
    <edge id="5059316#0">
        <lane index="0" disallow="pedestrian rail_urban rail rail_electric rail_fast ship"/>
    </edge>
    <edge id="5059316#1">
        <lane index="0" disallow="pedestrian rail_urban rail rail_electric rail_fast ship"/>
    </edge>
    <edge id="5059316#2">
        <lane index="0" disallow="pedestrian rail_urban rail rail_electric rail_fast ship"/>
    </edge>
    <edge id="5096577#7">
        <lane index="0" disallow="pedestrian rail_urban rail rail_electric rail_fast ship"/>
    </edge>
    <edge id="510544114">
        <lane index="0" disallow="pedestrian rail_urban rail rail_electric rail_fast ship"/>
    </edge>
    <edge id="56140088#1">
        <lane index="0" disallow="pedestrian rail_urban rail rail_electric rail_fast ship"/>
    </edge>
    <edge id="56140088#2">
        <lane index="0" disallow="pedestrian rail_urban rail rail_electric rail_fast ship"/>
    </edge>
    <edge id="56816465#0">
        <lane index="0" disallow="pedestrian rail_urban rail rail_electric rail_fast ship"/>
    </edge>
    <edge id="56816465#1">
        <lane index="0" disallow="pedestrian rail_urban rail rail_electric rail_fast ship"/>
    </edge>
    <edge id="56816465#2">
        <lane index="0" disallow="pedestrian rail_urban rail rail_electric rail_fast ship"/>
    </edge>
    <edge id="56816465#3">
        <lane index="0" disallow="pedestrian rail_urban rail rail_electric rail_fast ship"/>
    </edge>
    <edge id="59507511#0">
        <lane index="0" disallow="pedestrian rail_urban rail rail_electric rail_fast ship"/>
    </edge>
    <edge id="75435984">
        <lane index="0" disallow="pedestrian rail_urban rail rail_electric rail_fast ship"/>
    </edge>
    <edge id="97554509">
        <lane index="0" disallow="pedestrian rail_urban rail rail_electric rail_fast ship"/>
    </edge>
    
    <!-- Merge Tram lines 4&5 and Cars lane -->
    <edge id="563616437#0" disallow="pedestrian rail_urban rail rail_electric rail_fast ship"/>
    <edge id="563616437#1" disallow="pedestrian rail_urban rail rail_electric rail_fast ship"/>
    <edge id="-23272948" disallow="pedestrian rail_urban rail rail_electric rail_fast ship"/>
    <edge id="-23298006" disallow="pedestrian rail_urban rail rail_electric rail_fast ship"/>
    <edge id="-27143339" disallow="pedestrian rail_urban rail rail_electric rail_fast ship"/>
    <edge id="-332907828#3" disallow="pedestrian rail_urban rail rail_electric rail_fast ship"/>
    <edge id="-332907828#4" disallow="pedestrian rail_urban rail rail_electric rail_fast ship"/>
    <edge id="23272948" disallow="pedestrian rail_urban rail rail_electric rail_fast ship"/>
    <edge id="23298006" disallow="pedestrian rail_urban rail rail_electric rail_fast ship"/>
    <edge id="27143339" disallow="pedestrian rail_urban rail rail_electric rail_fast ship"/>
    <edge id="332907828#0" disallow="pedestrian rail_urban rail rail_electric rail_fast ship"/>
    <edge id="332907828#1" disallow="pedestrian rail_urban rail rail_electric rail_fast ship"/>
    <edge id="332907828#3" disallow="pedestrian rail_urban rail rail_electric rail_fast ship"/>
    <edge id="333477152" disallow="pedestrian rail_urban rail rail_electric rail_fast ship"/>
    <edge id="36827562" disallow="pedestrian rail_urban rail rail_electric rail_fast ship"/>
    <edge id="5137919#0" disallow="pedestrian rail_urban rail rail_electric rail_fast ship"/>
    <edge id="5137919#1" disallow="pedestrian rail_urban rail rail_electric rail_fast ship"/>
    <edge id="5137919#2" disallow="pedestrian rail_urban rail rail_electric rail_fast ship"/>
    <edge id="5137919#3" disallow="pedestrian rail_urban rail rail_electric rail_fast ship"/>
    <edge id="-375217310#3" disallow="pedestrian rail_urban rail rail_electric rail_fast ship"/>
    <edge id="-563616438#0" disallow="pedestrian rail_urban rail rail_electric rail_fast ship"/>
    <edge id="-563616438#1" disallow="pedestrian rail_urban rail rail_electric rail_fast ship"/>
    <edge id="-563616438#2" disallow="pedestrian rail_urban rail rail_electric rail_fast ship"/>
    <edge id="-622456655#0" disallow="pedestrian rail_urban rail rail_electric rail_fast ship"/>
    <edge id="155738436#2" disallow="pedestrian rail_urban rail rail_electric rail_fast ship"/>
    <edge id="375217310#0" disallow="pedestrian rail_urban rail rail_electric rail_fast ship"/>
    <edge id="375217310#1" disallow="pedestrian rail_urban rail rail_electric rail_fast ship"/>
    <edge id="375217310#2" disallow="pedestrian rail_urban rail rail_electric rail_fast ship"/>
    <edge id="375217310#3" disallow="pedestrian rail_urban rail rail_electric rail_fast ship"/>
    <edge id="563616437#1" disallow="pedestrian rail_urban rail rail_electric rail_fast ship"/>
    <edge id="563616437#2" disallow="pedestrian rail_urban rail rail_electric rail_fast ship"/>
    <edge id="23040911#0" disallow="pedestrian rail_urban rail rail_electric rail_fast ship"/>
    <edge id="563616438#0" disallow="pedestrian rail_urban rail rail_electric rail_fast ship"/>
    <edge id="563616438#1" disallow="pedestrian rail_urban rail rail_electric rail_fast ship"/>
    <edge id="563616438#2" disallow="pedestrian rail_urban rail rail_electric rail_fast ship"/>
    <edge id="622456655#1" disallow="pedestrian rail_urban rail rail_electric rail_fast ship"/>
    <edge id="625058945" disallow="pedestrian rail_urban rail rail_electric rail_fast ship"/>
    <delete id="291757758#13"/>
    <delete id="291757758#16"/>
    <delete id="291757758#17"/>
    <delete id="291757758#2"/>
    <delete id="291757758#4"/>
    <delete id="291757758#5"/>
    <delete id="291757758#7"/>
    <delete id="310569080#1"/>
    <delete id="310569080#12"/>
    <delete id="310569080#2"/>
    <delete id="310569080#5"/>
    <delete id="310569080#9"/>
    <delete id="393081314#3"/>
    <delete id="393081314#5"/>
    <delete id="561255723#0"/>
    <delete id="561255723#3"/>
    <delete id="561255726#3"/>
    <delete id="600220249#0"/>
    <delete id="600220249#1"/>
    <delete id="600220249#4"/>
    <delete id="238993483"/>
    <delete id="238993486#1"/>
    <delete id="238993487#3"/>
    <delete id="291757757#2"/>
    <delete id="291757757#9"/>
    <delete id="291757760#2"/>
    <delete id="291757763#0"/>
    <delete id="291757766#0"/>
    <delete id="309839196#0"/>
    <delete id="393081313#0"/>
    <delete id="393081313#8"/>
    <delete id="502047174#3"/>
    <delete id="561255726#1"/>
    <delete id="561503393#1"/>
    <delete id="561503393#2"/>
    <delete id="624709344"/>
    <edge id="334152810#1">
        <lane index="1" disallow="pedestrian rail_urban rail rail_electric rail_fast ship"/>
    </edge>
    <edge id="375217305#2">
        <lane index="1" disallow="pedestrian rail_urban rail rail_electric rail_fast ship"/>
    </edge>
    <edge id="375217305#3">
        <lane index="1" disallow="pedestrian rail_urban rail rail_electric rail_fast ship"/>
    </edge>
    <edge id="375217305#4">
        <lane index="1" disallow="pedestrian rail_urban rail rail_electric rail_fast ship"/>
    </edge>
    <edge id="375217305#5">
        <lane index="1" disallow="pedestrian rail_urban rail rail_electric rail_fast ship"/>
    </edge>
    <edge id="382044611#0">
        <lane index="1" disallow="pedestrian rail_urban rail rail_electric rail_fast ship"/>
    </edge>
    <edge id="382044611#1">
        <lane index="1" disallow="pedestrian rail_urban rail rail_electric rail_fast ship"/>
    </edge>
    <edge id="382044611#2">
        <lane index="1" disallow="pedestrian rail_urban rail rail_electric rail_fast ship"/>
    </edge>
    <edge id="382044612">
        <lane index="2" disallow="pedestrian rail_urban rail rail_electric rail_fast ship"/>
    </edge>
    <edge id="375217303">
        <lane index="1" disallow="pedestrian rail_urban rail rail_electric rail_fast ship"/>
    </edge>
    <edge id="578374647#0">
        <lane index="1" disallow="pedestrian rail_urban rail rail_electric rail_fast ship"/>
    </edge>
    <edge id="578374647#1">
        <lane index="1" disallow="pedestrian rail_urban rail rail_electric rail_fast ship"/>
    </edge>
    <edge id="578374647#2">
        <lane index="1" disallow="pedestrian rail_urban rail rail_electric rail_fast ship"/>
    </edge>
    <edge id="-54683173">
        <lane index="1" disallow="pedestrian rail_urban rail rail_electric rail_fast ship"/>
    </edge>
    <edge id="-334152810#1">
        <lane index="1" disallow="pedestrian rail_urban rail rail_electric rail_fast ship"/>
    </edge>
    <edge id="-334152810#0">
        <lane index="1" disallow="pedestrian rail_urban rail rail_electric rail_fast ship"/>
    </edge>
    <edge id="334152813#0">
        <lane index="1" disallow="pedestrian rail_urban rail rail_electric rail_fast ship"/>
    </edge>
    <edge id="334152813#1">
        <lane index="1" disallow="pedestrian rail_urban rail rail_electric rail_fast ship"/>
    </edge>
    <edge id="25258740#0">
        <lane index="1" disallow="pedestrian rail_urban rail rail_electric rail_fast ship"/>
    </edge>
    <edge id="25258740#1">
        <lane index="1" disallow="pedestrian rail_urban rail rail_electric rail_fast ship"/>
    </edge>

    <!-- Helmstedter Straße -->
    <edge id="25258740#2" numLanes="3">
        <lane index="1" disallow="pedestrian rail_urban rail rail_electric rail_fast ship"/>
    </edge>
    <edge id="25258740#3" numLanes="3">
        <lane index="1" disallow="pedestrian rail_urban rail rail_electric rail_fast ship"/>
    </edge>
    <edge id="25258740#4" numLanes="3">
        <lane index="1" disallow="pedestrian rail_urban rail rail_electric rail_fast ship"/>
    </edge>
    <edge id="495906623#0">
        <lane index="1" disallow="pedestrian rail_urban rail rail_electric rail_fast ship"/>
    </edge>
    <edge id="495906623#1">
        <lane index="1" disallow="pedestrian rail_urban rail rail_electric rail_fast ship"/>
    </edge>
    <edge id="495906628">
        <lane index="1" disallow="pedestrian rail_urban rail rail_electric rail_fast ship"/>
    </edge>
    <edge id="334152813#7">
        <lane index="1" disallow="pedestrian rail_urban rail rail_electric rail_fast ship"/>
    </edge>
    <edge id="334152813#8">
        <lane index="1" disallow="pedestrian rail_urban rail rail_electric rail_fast ship"/>
    </edge>
    <edge id="334152813#9">
        <lane index="1" disallow="pedestrian rail_urban rail rail_electric rail_fast ship"/>
    </edge>
    <edge id="334152812#0">
        <lane index="1" disallow="pedestrian rail_urban rail rail_electric rail_fast ship"/>
    </edge>
    <edge id="334152812#1">
        <lane index="1" disallow="pedestrian rail_urban rail rail_electric rail_fast ship"/>
    </edge>
    <edge id="334152812#2">
        <lane index="1" disallow="pedestrian rail_urban rail rail_electric rail_fast ship"/>
    </edge>
    <edge id="334152812#3">
        <lane index="1" disallow="pedestrian rail_urban rail rail_electric rail_fast ship"/>
    </edge>
    <edge id="334152810#0">
        <lane index="1" disallow="pedestrian rail_urban rail rail_electric rail_fast ship"/>
    </edge>
    <edge id="54683173">
        <lane index="1" disallow="pedestrian rail_urban rail rail_electric rail_fast ship"/>
    </edge>
    <edge id="226674627">
        <lane index="0" disallow="pedestrian rail_urban rail rail_electric rail_fast ship"/>
    </edge>
    <edge id="226674628#0">
        <lane index="0" disallow="pedestrian rail_urban rail rail_electric rail_fast ship"/>
    </edge>
    <edge id="226674628#1">
        <lane index="0" disallow="pedestrian rail_urban rail rail_electric rail_fast ship"/>
    </edge>
    <edge id="226674628#2">
        <lane index="0" disallow="pedestrian rail_urban rail rail_electric rail_fast ship"/>
    </edge>
    
    <edge id="611585790" numLanes="1"/>
    <edge id="5170415#1" numLanes="1"/>
    <edge id="334152816#1" allow="emergency authority bus tram"/>
    <edge id="334152817#0" allow="emergency authority bus tram"/>
    <edge id="563320574#0" allow="emergency authority bus tram"/>
    <edge id="563320575#0" allow="emergency authority bus tram"/>
    <edge id="563320574#1" allow="emergency authority bus tram"/>
    <edge id="563320575#1" allow="emergency authority bus tram"/>
    <edge id="334152817#1" allow="emergency authority bus tram"/>
    <edge id="334152816#2" allow="emergency authority bus tram"/>
    <edge id="334152817#1" allow="emergency authority bus tram"/>
    
    <edge id="-624680815" numLanes="3"/>
    <edge id="-313800998" numLanes="3"/>
    <edge id="-30773146" numLanes="2"/>
    
    <edge id="120235211" speed="16.66"/>
    <edge id="254630074" speed="16.66"/>
    <edge id="254630073" speed="16.66"/>
    <edge id="81634408" speed="16.66"/>
    <edge id="120263928" speed="16.66"/>
    <edge id="26938738" speed="16.66"/>
    
    <delete id="113780419#0"/>
    <delete id="-113780419#0"/>
    <delete id="113780419#1"/>
    <delete id="113780419#3"/>
    
</edges>
